
Circuit: *pulseloop

Doing analysis at TEMP = 27.000000 and TNOM = 27.000000

Note: Starting dynamic gmin stepping
Trying gmin =   1.0000E-03 Note: One successful gmin step
Trying gmin =   1.0000E-04 Note: One successful gmin step
Trying gmin =   1.0000E-05 Warning: Further gmin increment
Trying gmin =   5.6234E-05 Note: One successful gmin step
Trying gmin =   2.3714E-05 Note: One successful gmin step
Trying gmin =   6.4938E-06 Note: One successful gmin step
Trying gmin =   9.3057E-07 Note: One successful gmin step
Trying gmin =   9.3057E-08 Note: One successful gmin step
Trying gmin =   9.3057E-09 Note: One successful gmin step
Trying gmin =   9.3057E-10 Note: One successful gmin step
Trying gmin =   9.3057E-11 Note: One successful gmin step
Trying gmin =   9.3057E-12 Note: One successful gmin step
Trying gmin =   2.9427E-12 Note: One successful gmin step
Trying gmin =   1.0000E-12 Note: One successful gmin step
Note: Dynamic gmin stepping completed

Initial Transient Solution
--------------------------

Node                                   Voltage
----                                   -------
xpg1.1                                     1.8
xpg1.reset_loop                            1.8
xpg1.critical_node                     1.74017
snoise                                       0
outb                               9.68599e-07
xpg1.invo                          2.45993e-06
xpg1.xe                                    1.8
outa                               9.68599e-07
xpg2.1                                     1.8
xpg2.reset_loop                            1.8
xpg2.critical_node                     1.74017
xpg2.invo                          2.45993e-06
xpg2.xe                                    1.8
xpg3.1                                     1.8
xpg3.reset_loop                            1.8
xpg3.critical_node                     1.74017
npoutb                             9.68599e-07
xpg3.invo                          2.45993e-06
xpg3.xe                                    1.8
npouta                             9.68599e-07
xpg4.1                                     1.8
xpg4.reset_loop                            1.8
xpg4.critical_node                         1.8
xpg4.invo                          9.68599e-07
xpg4.xe                                    1.8
xpg5.1                                     1.8
xpg5.reset_loop                            1.8
xpg5.critical_node                     1.74017
upb                                9.68599e-07
xpg5.invo                          2.45993e-06
xpg5.xe                                    1.8
upa                                9.68599e-07
xpg6.1                                     1.8
xpg6.reset_loop                            1.8
xpg6.critical_node                     1.74017
xpg6.invo                          2.45993e-06
xpg6.xe                                    1.8
v2#branch                                    0
v.xpg6.v1#branch                  -1.74993e-09
v.xpg5.v1#branch                  -1.74993e-09
v.xpg4.v1#branch                  -1.01106e-09
v.xpg3.v1#branch                  -1.74993e-09
v.xpg2.v1#branch                  -1.74993e-09
v.xpg1.v1#branch                  -1.74993e-09



No. of Data Rows : 29337

  Measurements for Transient Analysis


Error: measure  npresponsetimeb  (WHEN) : out of interval
 .measure tran npresponsetimeb when v(npoutb)=1.2 cross=1 failed!


Error: measure  npresponsetimeb  (WHEN) : out of interval
 .measure tran npresponsetimeb when v(npoutb)=1.2 cross=2 failed!


Error: measure  npresponsetimeb  (WHEN) : out of interval
 .measure tran npresponsetimeb when v(npoutb)=1.2 cross=3 failed!


Error: measure  npresponsetimeb  (WHEN) : out of interval
 .measure tran npresponsetimeb when v(npoutb)=1.2 cross=4 failed!

responsetimea       =   2.24337e-10
responsetimea       =   2.70734e-10
responsetimea       =   2.65264e-09
responsetimea       =   2.70015e-09
responsetimeb       =   3.04925e-10
responsetimeb       =   3.64470e-10
responsetimeb       =   2.73555e-09
responsetimeb       =   2.79326e-09
npresponsetimea     =   2.25414e-10
npresponsetimea     =   2.71241e-10
npresponsetimea     =   2.65274e-09
npresponsetimea     =   2.70007e-09
responsetimeupa     =   3.07447e-10
responsetimeupa     =   3.67132e-10
responsetimeupa     =   2.73738e-09
responsetimeupa     =   2.79599e-09
responsetimeupb     =   3.88383e-10
responsetimeupb     =   4.47024e-10
responsetimeupb     =   2.82015e-09
responsetimeupb     =   2.87908e-09

Doing analysis at TEMP = 27.000000 and TNOM = 27.000000


  Measurements for Transient Analysis


Error: measure  npresponsetimeb  (WHEN) : out of interval
 .measure tran npresponsetimeb when v(npoutb)=1.2 cross=1 failed!


Error: measure  npresponsetimeb  (WHEN) : out of interval
 .measure tran npresponsetimeb when v(npoutb)=1.2 cross=2 failed!


Error: measure  npresponsetimeb  (WHEN) : out of interval
 .measure tran npresponsetimeb when v(npoutb)=1.2 cross=3 failed!


Error: measure  npresponsetimeb  (WHEN) : out of interval
 .measure tran npresponsetimeb when v(npoutb)=1.2 cross=4 failed!

responsetimea       =   2.24337e-10
responsetimea       =   2.70734e-10
responsetimea       =   2.65264e-09
responsetimea       =   2.70015e-09
responsetimeb       =   3.04925e-10
responsetimeb       =   3.64470e-10
responsetimeb       =   2.73555e-09
responsetimeb       =   2.79326e-09
npresponsetimea     =   2.25414e-10
npresponsetimea     =   2.71241e-10
npresponsetimea     =   2.65274e-09
npresponsetimea     =   2.70007e-09
responsetimeupa     =   3.07447e-10
responsetimeupa     =   3.67132e-10
responsetimeupa     =   2.73738e-09
responsetimeupa     =   2.79599e-09
responsetimeupb     =   3.88383e-10
responsetimeupb     =   4.47024e-10
responsetimeupb     =   2.82015e-09
responsetimeupb     =   2.87908e-09

CPU time since last call: 32.923 seconds.

Total CPU time: 32.923 seconds.

Total DRAM available = 128860.136719 MB.
DRAM currently available = 110457.105469 MB.
Total ngspice program size = 99.347656 MB.
Resident set size = 84.887695 MB.
Shared ngspice pages = 2.066406 MB.
Text (code) pages = 1.597656 MB.
Stack = 0 bytes.
Library pages = 82.966797 MB.

