
Circuit: *pulseloop

Doing analysis at TEMP = 27.000000 and TNOM = 27.000000

Note: Starting dynamic gmin stepping
Trying gmin =   1.0000E-03 Note: One successful gmin step
Trying gmin =   1.0000E-04 Note: One successful gmin step
Trying gmin =   1.0000E-05 Warning: Further gmin increment
Trying gmin =   5.6234E-05 Note: One successful gmin step
Trying gmin =   2.3714E-05 Note: One successful gmin step
Trying gmin =   6.4938E-06 Note: One successful gmin step
Trying gmin =   9.3057E-07 Note: One successful gmin step
Trying gmin =   9.3057E-08 Note: One successful gmin step
Trying gmin =   9.3057E-09 Note: One successful gmin step
Trying gmin =   9.3057E-10 Note: One successful gmin step
Trying gmin =   9.3057E-11 Note: One successful gmin step
Trying gmin =   9.3057E-12 Note: One successful gmin step
Trying gmin =   2.9427E-12 Note: One successful gmin step
Trying gmin =   1.0000E-12 Note: One successful gmin step
Note: Dynamic gmin stepping completed

Initial Transient Solution
--------------------------

Node                                   Voltage
----                                   -------
xpg1.1                                     1.8
xpg1.reset_loop                            1.8
xpg1.critical_node                     1.74017
snoise                                       0
outb                               9.68599e-07
xpg1.invo                          2.45993e-06
xpg1.xe                                    1.8
outa                               9.68599e-07
xpg2.1                                     1.8
xpg2.reset_loop                            1.8
xpg2.critical_node                     1.74017
xpg2.invo                          2.45993e-06
xpg2.xe                                    1.8
xpg3.1                                     1.8
xpg3.reset_loop                            1.8
xpg3.critical_node                     1.74017
npoutb                             9.68599e-07
xpg3.invo                          2.45993e-06
xpg3.xe                                    1.8
npouta                             9.68599e-07
xpg4.1                                     1.8
xpg4.reset_loop                            1.8
xpg4.critical_node                         1.8
xpg4.invo                          9.68599e-07
xpg4.xe                                    1.8
xpg5.1                                     1.8
xpg5.reset_loop                            1.8
xpg5.critical_node                     1.74017
upb                                9.68599e-07
xpg5.invo                          2.45993e-06
xpg5.xe                                    1.8
upa                                9.68599e-07
xpg6.1                                     1.8
xpg6.reset_loop                            1.8
xpg6.critical_node                     1.74017
xpg6.invo                          2.45993e-06
xpg6.xe                                    1.8
v2#branch                                    0
v.xpg6.v1#branch                  -1.74993e-09
v.xpg5.v1#branch                  -1.74993e-09
v.xpg4.v1#branch                  -1.01106e-09
v.xpg3.v1#branch                  -1.74993e-09
v.xpg2.v1#branch                  -1.74993e-09
v.xpg1.v1#branch                  -1.74993e-09

doAnalyses: TRAN:  Timestep too small; time = 5.44e-09, timestep = 1.25e-23: cause unrecorded.


tran simulation(s) aborted
Doing analysis at TEMP = 27.000000 and TNOM = 27.000000


  Measurements for Transient Analysis

responsetimea       =   1.61789e-10
responsetimea       =   2.27553e-10
responsetimea       =   3.57710e-10
responsetimea       =   4.25036e-10
responsetimeb       =   2.44747e-10
responsetimeb       =   3.03412e-10
responsetimeb       =   4.39014e-10
responsetimeb       =   4.94744e-10
npresponsetimea     =   1.63073e-10
npresponsetimea     =   2.29436e-10
npresponsetimea     =   3.55529e-10
npresponsetimea     =   4.21575e-10
npresponsetimeb     =   2.57116e-10
npresponsetimeb     =   2.71129e-10
npresponsetimeb     =   4.64403e-10
npresponsetimeb     =   5.08414e-10
responsetimeupa     =   2.45855e-10
responsetimeupa     =   3.05697e-10
responsetimeupa     =   4.44659e-10
responsetimeupa     =   5.03746e-10
responsetimeupb     =   3.26882e-10
responsetimeupb     =   3.85083e-10
responsetimeupb     =   5.27872e-10
responsetimeupb     =   5.86914e-10

CPU time since last call: 12.000 seconds.

Total CPU time: 12.000 seconds.

Total DRAM available = 128860.136719 MB.
DRAM currently available = 110479.210938 MB.
Total ngspice program size = 84.992188 MB.
Resident set size = 70.521484 MB.
Shared ngspice pages = 2.008789 MB.
Text (code) pages = 1.597656 MB.
Stack = 0 bytes.
Library pages = 68.611328 MB.

