
Circuit: *pulseloop

Doing analysis at TEMP = 27.000000 and TNOM = 27.000000

Note: Starting dynamic gmin stepping
Trying gmin =   1.0000E-03 Note: One successful gmin step
Trying gmin =   1.0000E-04 Note: One successful gmin step
Trying gmin =   1.0000E-05 Warning: Further gmin increment
Trying gmin =   5.6234E-05 Note: One successful gmin step
Trying gmin =   2.3714E-05 Note: One successful gmin step
Trying gmin =   6.4938E-06 Note: One successful gmin step
Trying gmin =   9.3057E-07 Note: One successful gmin step
Trying gmin =   9.3057E-08 Note: One successful gmin step
Trying gmin =   9.3057E-09 Note: One successful gmin step
Trying gmin =   9.3057E-10 Note: One successful gmin step
Trying gmin =   9.3057E-11 Note: One successful gmin step
Trying gmin =   9.3057E-12 Note: One successful gmin step
Trying gmin =   2.9427E-12 Note: One successful gmin step
Trying gmin =   1.0000E-12 Note: One successful gmin step
Note: Dynamic gmin stepping completed

Initial Transient Solution
--------------------------

Node                                   Voltage
----                                   -------
xpg1.1                                     1.8
xpg1.reset_loop                            1.8
xpg1.critical_node                     1.74017
snoise                                       0
outb                               9.68599e-07
xpg1.invo                          2.45993e-06
xpg1.xe                                    1.8
outa                               9.68599e-07
xpg2.1                                     1.8
xpg2.reset_loop                            1.8
xpg2.critical_node                     1.74017
xpg2.invo                          2.45993e-06
xpg2.xe                                    1.8
xpg3.1                                     1.8
xpg3.reset_loop                            1.8
xpg3.critical_node                     1.74017
npoutb                             9.68599e-07
xpg3.invo                          2.45993e-06
xpg3.xe                                    1.8
npouta                             9.68599e-07
xpg4.1                                     1.8
xpg4.reset_loop                            1.8
xpg4.critical_node                         1.8
xpg4.invo                          9.68599e-07
xpg4.xe                                    1.8
xpg5.1                                     1.8
xpg5.reset_loop                            1.8
xpg5.critical_node                     1.74017
upb                                9.68599e-07
xpg5.invo                          2.45993e-06
xpg5.xe                                    1.8
upa                                9.68599e-07
xpg6.1                                     1.8
xpg6.reset_loop                            1.8
xpg6.critical_node                     1.74017
xpg6.invo                          2.45993e-06
xpg6.xe                                    1.8
v2#branch                                    0
v.xpg6.v1#branch                  -1.74993e-09
v.xpg5.v1#branch                  -1.74993e-09
v.xpg4.v1#branch                  -1.01106e-09
v.xpg3.v1#branch                  -1.74993e-09
v.xpg2.v1#branch                  -1.74993e-09
v.xpg1.v1#branch                  -1.74993e-09



No. of Data Rows : 33967

  Measurements for Transient Analysis

responsetimea       =   9.25147e-11
responsetimea       =   1.44913e-10
responsetimea       =   5.54902e-10
responsetimea       =   6.92556e-10
responsetimeb       =   1.73681e-10
responsetimeb       =   2.32802e-10
responsetimeb       =   6.44596e-10
responsetimeb       =   7.61428e-10
npresponsetimea     =   9.36134e-11
npresponsetimea     =   1.45827e-10
npresponsetimea     =   5.56330e-10
npresponsetimea     =   6.94204e-10
npresponsetimeb     =   1.99840e-09
npresponsetimeb     =   2.02768e-09
npresponsetimeb     =   2.81940e-09
npresponsetimeb     =   2.86151e-09
responsetimeupa     =   1.76986e-10
responsetimeupa     =   2.34658e-10
responsetimeupa     =   6.40842e-10
responsetimeupa     =   7.65391e-10
responsetimeupb     =   2.57978e-10
responsetimeupb     =   3.16355e-10
responsetimeupb     =   7.37315e-10
responsetimeupb     =   8.34667e-10

Doing analysis at TEMP = 27.000000 and TNOM = 27.000000


  Measurements for Transient Analysis

responsetimea       =   9.25147e-11
responsetimea       =   1.44913e-10
responsetimea       =   5.54902e-10
responsetimea       =   6.92556e-10
responsetimeb       =   1.73681e-10
responsetimeb       =   2.32802e-10
responsetimeb       =   6.44596e-10
responsetimeb       =   7.61428e-10
npresponsetimea     =   9.36134e-11
npresponsetimea     =   1.45827e-10
npresponsetimea     =   5.56330e-10
npresponsetimea     =   6.94204e-10
npresponsetimeb     =   1.99840e-09
npresponsetimeb     =   2.02768e-09
npresponsetimeb     =   2.81940e-09
npresponsetimeb     =   2.86151e-09
responsetimeupa     =   1.76986e-10
responsetimeupa     =   2.34658e-10
responsetimeupa     =   6.40842e-10
responsetimeupa     =   7.65391e-10
responsetimeupb     =   2.57978e-10
responsetimeupb     =   3.16355e-10
responsetimeupb     =   7.37315e-10
responsetimeupb     =   8.34667e-10

CPU time since last call: 40.773 seconds.

Total CPU time: 40.773 seconds.

Total DRAM available = 128860.136719 MB.
DRAM currently available = 110418.187500 MB.
Total ngspice program size = 102.021484 MB.
Resident set size = 87.571289 MB.
Shared ngspice pages = 2.041992 MB.
Text (code) pages = 1.597656 MB.
Stack = 0 bytes.
Library pages = 85.640625 MB.

