
Circuit: *pulseloop

Doing analysis at TEMP = 27.000000 and TNOM = 27.000000

Note: Starting dynamic gmin stepping
Trying gmin =   1.0000E-03 Note: One successful gmin step
Trying gmin =   1.0000E-04 Note: One successful gmin step
Trying gmin =   1.0000E-05 Warning: Further gmin increment
Trying gmin =   5.6234E-05 Note: One successful gmin step
Trying gmin =   2.3714E-05 Note: One successful gmin step
Trying gmin =   6.4938E-06 Note: One successful gmin step
Trying gmin =   9.3057E-07 Note: One successful gmin step
Trying gmin =   9.3057E-08 Note: One successful gmin step
Trying gmin =   9.3057E-09 Note: One successful gmin step
Trying gmin =   9.3057E-10 Note: One successful gmin step
Trying gmin =   9.3057E-11 Note: One successful gmin step
Trying gmin =   9.3057E-12 Note: One successful gmin step
Trying gmin =   2.9427E-12 Note: One successful gmin step
Trying gmin =   1.0000E-12 Note: One successful gmin step
Note: Dynamic gmin stepping completed

Initial Transient Solution
--------------------------

Node                                   Voltage
----                                   -------
xpg1.1                                     1.8
xpg1.reset_loop                            1.8
xpg1.critical_node                     1.74017
snoise                                       0
outb                               9.68599e-07
xpg1.invo                          2.45993e-06
xpg1.xe                                    1.8
outa                               9.68599e-07
xpg2.1                                     1.8
xpg2.reset_loop                            1.8
xpg2.critical_node                     1.74017
xpg2.invo                          2.45993e-06
xpg2.xe                                    1.8
xpg3.1                                     1.8
xpg3.reset_loop                            1.8
xpg3.critical_node                     1.74017
npoutb                             9.68599e-07
xpg3.invo                          2.45993e-06
xpg3.xe                                    1.8
npouta                             9.68599e-07
xpg4.1                                     1.8
xpg4.reset_loop                            1.8
xpg4.critical_node                         1.8
xpg4.invo                          9.68599e-07
xpg4.xe                                    1.8
xpg5.1                                     1.8
xpg5.reset_loop                            1.8
xpg5.critical_node                     1.74017
upb                                9.68599e-07
xpg5.invo                          2.45993e-06
xpg5.xe                                    1.8
upa                                9.68599e-07
xpg6.1                                     1.8
xpg6.reset_loop                            1.8
xpg6.critical_node                     1.74017
xpg6.invo                          2.45993e-06
xpg6.xe                                    1.8
v2#branch                                    0
v.xpg6.v1#branch                  -1.74993e-09
v.xpg5.v1#branch                  -1.74993e-09
v.xpg4.v1#branch                  -1.01106e-09
v.xpg3.v1#branch                  -1.74993e-09
v.xpg2.v1#branch                  -1.74993e-09
v.xpg1.v1#branch                  -1.74993e-09



No. of Data Rows : 30131

  Measurements for Transient Analysis


Error: measure  npresponsetimeb  (WHEN) : out of interval
 .measure tran npresponsetimeb when v(npoutb)=1.2 cross=3 failed!


Error: measure  npresponsetimeb  (WHEN) : out of interval
 .measure tran npresponsetimeb when v(npoutb)=1.2 cross=4 failed!

responsetimea       =   2.68365e-10
responsetimea       =   3.04790e-10
responsetimea       =   7.72625e-10
responsetimea       =   8.22945e-10
responsetimeb       =   3.47940e-10
responsetimeb       =   4.06943e-10
responsetimeb       =   8.56914e-10
responsetimeb       =   9.13712e-10
npresponsetimea     =   2.69659e-10
npresponsetimea     =   3.04772e-10
npresponsetimea     =   7.73706e-10
npresponsetimea     =   8.23798e-10
npresponsetimeb     =   2.35962e-08
npresponsetimeb     =   2.36142e-08
responsetimeupa     =   3.51187e-10
responsetimeupa     =   4.10109e-10
responsetimeupa     =   8.58934e-10
responsetimeupa     =   9.17008e-10
responsetimeupb     =   4.32436e-10
responsetimeupb     =   4.90631e-10
responsetimeupb     =   9.42038e-10
responsetimeupb     =   1.00099e-09

Doing analysis at TEMP = 27.000000 and TNOM = 27.000000


  Measurements for Transient Analysis


Error: measure  npresponsetimeb  (WHEN) : out of interval
 .measure tran npresponsetimeb when v(npoutb)=1.2 cross=3 failed!


Error: measure  npresponsetimeb  (WHEN) : out of interval
 .measure tran npresponsetimeb when v(npoutb)=1.2 cross=4 failed!

responsetimea       =   2.68365e-10
responsetimea       =   3.04790e-10
responsetimea       =   7.72625e-10
responsetimea       =   8.22945e-10
responsetimeb       =   3.47940e-10
responsetimeb       =   4.06943e-10
responsetimeb       =   8.56914e-10
responsetimeb       =   9.13712e-10
npresponsetimea     =   2.69659e-10
npresponsetimea     =   3.04772e-10
npresponsetimea     =   7.73706e-10
npresponsetimea     =   8.23798e-10
npresponsetimeb     =   2.35962e-08
npresponsetimeb     =   2.36142e-08
responsetimeupa     =   3.51187e-10
responsetimeupa     =   4.10109e-10
responsetimeupa     =   8.58934e-10
responsetimeupa     =   9.17008e-10
responsetimeupb     =   4.32436e-10
responsetimeupb     =   4.90631e-10
responsetimeupb     =   9.42038e-10
responsetimeupb     =   1.00099e-09

CPU time since last call: 34.011 seconds.

Total CPU time: 34.011 seconds.

Total DRAM available = 128860.136719 MB.
DRAM currently available = 110454.117188 MB.
Total ngspice program size = 99.693359 MB.
Resident set size = 85.258789 MB.
Shared ngspice pages = 2.049805 MB.
Text (code) pages = 1.597656 MB.
Stack = 0 bytes.
Library pages = 83.312500 MB.

