
Circuit: *pulseloop

Doing analysis at TEMP = 27.000000 and TNOM = 27.000000

Note: Starting dynamic gmin stepping
Trying gmin =   1.0000E-03 Note: One successful gmin step
Trying gmin =   1.0000E-04 Note: One successful gmin step
Trying gmin =   1.0000E-05 Warning: Further gmin increment
Trying gmin =   5.6234E-05 Note: One successful gmin step
Trying gmin =   2.3714E-05 Note: One successful gmin step
Trying gmin =   6.4938E-06 Note: One successful gmin step
Trying gmin =   9.3057E-07 Note: One successful gmin step
Trying gmin =   9.3057E-08 Note: One successful gmin step
Trying gmin =   9.3057E-09 Note: One successful gmin step
Trying gmin =   9.3057E-10 Note: One successful gmin step
Trying gmin =   9.3057E-11 Note: One successful gmin step
Trying gmin =   9.3057E-12 Note: One successful gmin step
Trying gmin =   2.9427E-12 Note: One successful gmin step
Trying gmin =   1.0000E-12 Note: One successful gmin step
Note: Dynamic gmin stepping completed

Initial Transient Solution
--------------------------

Node                                   Voltage
----                                   -------
xpg1.1                                     1.8
xpg1.reset_loop                            1.8
xpg1.critical_node                     1.74017
snoise                                       0
outb                               9.68599e-07
xpg1.invo                          2.45993e-06
xpg1.xe                                    1.8
outa                               9.68599e-07
xpg2.1                                     1.8
xpg2.reset_loop                            1.8
xpg2.critical_node                     1.74017
xpg2.invo                          2.45993e-06
xpg2.xe                                    1.8
xpg3.1                                     1.8
xpg3.reset_loop                            1.8
xpg3.critical_node                     1.74017
npoutb                             9.68599e-07
xpg3.invo                          2.45993e-06
xpg3.xe                                    1.8
npouta                             9.68599e-07
xpg4.1                                     1.8
xpg4.reset_loop                            1.8
xpg4.critical_node                         1.8
xpg4.invo                          9.68599e-07
xpg4.xe                                    1.8
xpg5.1                                     1.8
xpg5.reset_loop                            1.8
xpg5.critical_node                     1.74017
upb                                9.68599e-07
xpg5.invo                          2.45993e-06
xpg5.xe                                    1.8
upa                                9.68599e-07
xpg6.1                                     1.8
xpg6.reset_loop                            1.8
xpg6.critical_node                     1.74017
xpg6.invo                          2.45993e-06
xpg6.xe                                    1.8
v2#branch                                    0
v.xpg6.v1#branch                  -1.74993e-09
v.xpg5.v1#branch                  -1.74993e-09
v.xpg4.v1#branch                  -1.01106e-09
v.xpg3.v1#branch                  -1.74993e-09
v.xpg2.v1#branch                  -1.74993e-09
v.xpg1.v1#branch                  -1.74993e-09



No. of Data Rows : 33118

  Measurements for Transient Analysis

responsetimea       =   4.06285e-10
responsetimea       =   4.48543e-10
responsetimea       =   6.93411e-10
responsetimea       =   7.50725e-10
responsetimeb       =   4.79551e-10
responsetimeb       =   5.38070e-10
responsetimeb       =   7.86760e-10
responsetimeb       =   8.17986e-10
npresponsetimea     =   4.09358e-10
npresponsetimea     =   4.48696e-10
npresponsetimea     =   6.94919e-10
npresponsetimea     =   7.50666e-10
npresponsetimeb     =   1.88341e-09
npresponsetimeb     =   1.93598e-09
npresponsetimeb     =   3.04180e-09
npresponsetimeb     =   3.09816e-09
responsetimeupa     =   4.84583e-10
responsetimeupa     =   5.44133e-10
responsetimeupa     =   7.80263e-10
responsetimeupa     =   8.39152e-10
responsetimeupb     =   5.65240e-10
responsetimeupb     =   6.24528e-10
responsetimeupb     =   8.72611e-10
responsetimeupb     =   9.07984e-10

Doing analysis at TEMP = 27.000000 and TNOM = 27.000000


  Measurements for Transient Analysis

responsetimea       =   4.06285e-10
responsetimea       =   4.48543e-10
responsetimea       =   6.93411e-10
responsetimea       =   7.50725e-10
responsetimeb       =   4.79551e-10
responsetimeb       =   5.38070e-10
responsetimeb       =   7.86760e-10
responsetimeb       =   8.17986e-10
npresponsetimea     =   4.09358e-10
npresponsetimea     =   4.48696e-10
npresponsetimea     =   6.94919e-10
npresponsetimea     =   7.50666e-10
npresponsetimeb     =   1.88341e-09
npresponsetimeb     =   1.93598e-09
npresponsetimeb     =   3.04180e-09
npresponsetimeb     =   3.09816e-09
responsetimeupa     =   4.84583e-10
responsetimeupa     =   5.44133e-10
responsetimeupa     =   7.80263e-10
responsetimeupa     =   8.39152e-10
responsetimeupb     =   5.65240e-10
responsetimeupb     =   6.24528e-10
responsetimeupb     =   8.72611e-10
responsetimeupb     =   9.07984e-10

CPU time since last call: 39.753 seconds.

Total CPU time: 39.753 seconds.

Total DRAM available = 128860.136719 MB.
DRAM currently available = 110433.960938 MB.
Total ngspice program size = 101.249023 MB.
Resident set size = 86.782227 MB.
Shared ngspice pages = 2.028320 MB.
Text (code) pages = 1.597656 MB.
Stack = 0 bytes.
Library pages = 84.868164 MB.

