
Circuit: *pulseloop

Doing analysis at TEMP = 27.000000 and TNOM = 27.000000

Note: Starting dynamic gmin stepping
Trying gmin =   1.0000E-03 Note: One successful gmin step
Trying gmin =   1.0000E-04 Note: One successful gmin step
Trying gmin =   1.0000E-05 Warning: Further gmin increment
Trying gmin =   5.6234E-05 Note: One successful gmin step
Trying gmin =   2.3714E-05 Note: One successful gmin step
Trying gmin =   6.4938E-06 Note: One successful gmin step
Trying gmin =   9.3057E-07 Note: One successful gmin step
Trying gmin =   9.3057E-08 Note: One successful gmin step
Trying gmin =   9.3057E-09 Note: One successful gmin step
Trying gmin =   9.3057E-10 Note: One successful gmin step
Trying gmin =   9.3057E-11 Note: One successful gmin step
Trying gmin =   9.3057E-12 Note: One successful gmin step
Trying gmin =   2.9427E-12 Note: One successful gmin step
Trying gmin =   1.0000E-12 Note: One successful gmin step
Note: Dynamic gmin stepping completed

Initial Transient Solution
--------------------------

Node                                   Voltage
----                                   -------
xpg1.1                                     1.8
xpg1.reset_loop                            1.8
xpg1.critical_node                     1.74017
snoise                                       0
outb                               9.68599e-07
xpg1.invo                          2.45993e-06
xpg1.xe                                    1.8
outa                               9.68599e-07
xpg2.1                                     1.8
xpg2.reset_loop                            1.8
xpg2.critical_node                     1.74017
xpg2.invo                          2.45993e-06
xpg2.xe                                    1.8
xpg3.1                                     1.8
xpg3.reset_loop                            1.8
xpg3.critical_node                     1.74017
npoutb                             9.68599e-07
xpg3.invo                          2.45993e-06
xpg3.xe                                    1.8
npouta                             9.68599e-07
xpg4.1                                     1.8
xpg4.reset_loop                            1.8
xpg4.critical_node                         1.8
xpg4.invo                          9.68599e-07
xpg4.xe                                    1.8
xpg5.1                                     1.8
xpg5.reset_loop                            1.8
xpg5.critical_node                     1.74017
upb                                9.68599e-07
xpg5.invo                          2.45993e-06
xpg5.xe                                    1.8
upa                                9.68599e-07
xpg6.1                                     1.8
xpg6.reset_loop                            1.8
xpg6.critical_node                     1.74017
xpg6.invo                          2.45993e-06
xpg6.xe                                    1.8
v2#branch                                    0
v.xpg6.v1#branch                  -1.74993e-09
v.xpg5.v1#branch                  -1.74993e-09
v.xpg4.v1#branch                  -1.01106e-09
v.xpg3.v1#branch                  -1.74993e-09
v.xpg2.v1#branch                  -1.74993e-09
v.xpg1.v1#branch                  -1.74993e-09

doAnalyses: TRAN:  Timestep too small; time = 1.502e-08, timestep = 1.25e-23: cause unrecorded.


tran simulation(s) aborted
Doing analysis at TEMP = 27.000000 and TNOM = 27.000000


  Measurements for Transient Analysis

responsetimea       =   1.09575e-10
responsetimea       =   2.01431e-10
responsetimea       =   4.26918e-10
responsetimea       =   4.83981e-10
responsetimeb       =   1.93007e-10
responsetimeb       =   2.68607e-10
responsetimeb       =   5.11352e-10
responsetimeb       =   5.66711e-10
npresponsetimea     =   1.10853e-10
npresponsetimea     =   2.03490e-10
npresponsetimea     =   4.28202e-10
npresponsetimea     =   4.84974e-10
npresponsetimeb     =   2.05024e-10
npresponsetimeb     =   2.71199e-10
npresponsetimeb     =   1.10174e-09
npresponsetimeb     =   1.13012e-09
responsetimeupa     =   1.94092e-10
responsetimeupa     =   2.73925e-10
responsetimeupa     =   5.15274e-10
responsetimeupa     =   5.72715e-10
responsetimeupb     =   2.75615e-10
responsetimeupb     =   3.42516e-10
responsetimeupb     =   5.98549e-10
responsetimeupb     =   6.56190e-10

CPU time since last call: 14.887 seconds.

Total CPU time: 14.887 seconds.

Total DRAM available = 128860.136719 MB.
DRAM currently available = 110476.062500 MB.
Total ngspice program size = 86.668945 MB.
Resident set size = 72.183594 MB.
Shared ngspice pages = 1.995117 MB.
Text (code) pages = 1.597656 MB.
Stack = 0 bytes.
Library pages = 70.288086 MB.

