
Circuit: *pulseloop

Doing analysis at TEMP = 27.000000 and TNOM = 27.000000

Note: Starting dynamic gmin stepping
Trying gmin =   1.0000E-03 Note: One successful gmin step
Trying gmin =   1.0000E-04 Note: One successful gmin step
Trying gmin =   1.0000E-05 Warning: Further gmin increment
Trying gmin =   5.6234E-05 Note: One successful gmin step
Trying gmin =   2.3714E-05 Note: One successful gmin step
Trying gmin =   6.4938E-06 Note: One successful gmin step
Trying gmin =   9.3057E-07 Note: One successful gmin step
Trying gmin =   9.3057E-08 Note: One successful gmin step
Trying gmin =   9.3057E-09 Note: One successful gmin step
Trying gmin =   9.3057E-10 Note: One successful gmin step
Trying gmin =   9.3057E-11 Note: One successful gmin step
Trying gmin =   9.3057E-12 Note: One successful gmin step
Trying gmin =   2.9427E-12 Note: One successful gmin step
Trying gmin =   1.0000E-12 Note: One successful gmin step
Note: Dynamic gmin stepping completed

Initial Transient Solution
--------------------------

Node                                   Voltage
----                                   -------
xpg1.1                                     1.8
xpg1.reset_loop                            1.8
xpg1.critical_node                     1.74017
snoise                                       0
outb                               9.68599e-07
xpg1.invo                          2.45993e-06
xpg1.xe                                    1.8
outa                               9.68599e-07
xpg2.1                                     1.8
xpg2.reset_loop                            1.8
xpg2.critical_node                     1.74017
xpg2.invo                          2.45993e-06
xpg2.xe                                    1.8
xpg3.1                                     1.8
xpg3.reset_loop                            1.8
xpg3.critical_node                     1.74017
npoutb                             9.68599e-07
xpg3.invo                          2.45993e-06
xpg3.xe                                    1.8
npouta                             9.68599e-07
xpg4.1                                     1.8
xpg4.reset_loop                            1.8
xpg4.critical_node                         1.8
xpg4.invo                          9.68599e-07
xpg4.xe                                    1.8
xpg5.1                                     1.8
xpg5.reset_loop                            1.8
xpg5.critical_node                     1.74017
upb                                9.68599e-07
xpg5.invo                          2.45993e-06
xpg5.xe                                    1.8
upa                                9.68599e-07
xpg6.1                                     1.8
xpg6.reset_loop                            1.8
xpg6.critical_node                     1.74017
xpg6.invo                          2.45993e-06
xpg6.xe                                    1.8
v2#branch                                    0
v.xpg6.v1#branch                  -1.74993e-09
v.xpg5.v1#branch                  -1.74993e-09
v.xpg4.v1#branch                  -1.01106e-09
v.xpg3.v1#branch                  -1.74993e-09
v.xpg2.v1#branch                  -1.74993e-09
v.xpg1.v1#branch                  -1.74993e-09

doAnalyses: TRAN:  Timestep too small; time = 2.818e-08, timestep = 1.25e-23: trouble with node "npoutb"


tran simulation(s) aborted
Doing analysis at TEMP = 27.000000 and TNOM = 27.000000


  Measurements for Transient Analysis

responsetimea       =   6.95787e-10
responsetimea       =   7.94916e-10
responsetimea       =   9.45859e-10
responsetimea       =   1.00435e-09
responsetimeb       =   7.83109e-10
responsetimeb       =   8.64661e-10
responsetimeb       =   1.03182e-09
responsetimeb       =   1.08785e-09
npresponsetimea     =   6.97046e-10
npresponsetimea     =   7.97646e-10
npresponsetimea     =   9.46893e-10
npresponsetimea     =   1.00472e-09
npresponsetimeb     =   7.83593e-10
npresponsetimeb     =   8.52587e-10
npresponsetimeb     =   1.05036e-09
npresponsetimeb     =   1.07191e-09
responsetimeupa     =   7.80004e-10
responsetimeupa     =   8.68459e-10
responsetimeupa     =   1.03259e-09
responsetimeupa     =   1.09097e-09
responsetimeupb     =   8.60800e-10
responsetimeupb     =   9.37786e-10
responsetimeupb     =   1.11683e-09
responsetimeupb     =   1.17386e-09

CPU time since last call: 19.215 seconds.

Total CPU time: 19.215 seconds.

Total DRAM available = 128860.136719 MB.
DRAM currently available = 110463.882812 MB.
Total ngspice program size = 88.974609 MB.
Resident set size = 74.523438 MB.
Shared ngspice pages = 2.013672 MB.
Text (code) pages = 1.597656 MB.
Stack = 0 bytes.
Library pages = 72.593750 MB.

