
Circuit: *pulseloop

Doing analysis at TEMP = 27.000000 and TNOM = 27.000000

Note: Starting dynamic gmin stepping
Trying gmin =   1.0000E-03 Note: One successful gmin step
Trying gmin =   1.0000E-04 Note: One successful gmin step
Trying gmin =   1.0000E-05 Warning: Further gmin increment
Trying gmin =   5.6234E-05 Note: One successful gmin step
Trying gmin =   2.3714E-05 Note: One successful gmin step
Trying gmin =   6.4938E-06 Note: One successful gmin step
Trying gmin =   9.3057E-07 Note: One successful gmin step
Trying gmin =   9.3057E-08 Note: One successful gmin step
Trying gmin =   9.3057E-09 Note: One successful gmin step
Trying gmin =   9.3057E-10 Note: One successful gmin step
Trying gmin =   9.3057E-11 Note: One successful gmin step
Trying gmin =   9.3057E-12 Note: One successful gmin step
Trying gmin =   2.9427E-12 Note: One successful gmin step
Trying gmin =   1.0000E-12 Note: One successful gmin step
Note: Dynamic gmin stepping completed

Initial Transient Solution
--------------------------

Node                                   Voltage
----                                   -------
xpg1.1                                     1.8
xpg1.reset_loop                            1.8
xpg1.critical_node                     1.74017
snoise                                       0
outb                               9.68599e-07
xpg1.invo                          2.45993e-06
xpg1.xe                                    1.8
outa                               9.68599e-07
xpg2.1                                     1.8
xpg2.reset_loop                            1.8
xpg2.critical_node                     1.74017
xpg2.invo                          2.45993e-06
xpg2.xe                                    1.8
xpg3.1                                     1.8
xpg3.reset_loop                            1.8
xpg3.critical_node                     1.74017
npoutb                             9.68599e-07
xpg3.invo                          2.45993e-06
xpg3.xe                                    1.8
npouta                             9.68599e-07
xpg4.1                                     1.8
xpg4.reset_loop                            1.8
xpg4.critical_node                         1.8
xpg4.invo                          9.68599e-07
xpg4.xe                                    1.8
xpg5.1                                     1.8
xpg5.reset_loop                            1.8
xpg5.critical_node                     1.74017
upb                                9.68599e-07
xpg5.invo                          2.45993e-06
xpg5.xe                                    1.8
upa                                9.68599e-07
xpg6.1                                     1.8
xpg6.reset_loop                            1.8
xpg6.critical_node                     1.74017
xpg6.invo                          2.45993e-06
xpg6.xe                                    1.8
v2#branch                                    0
v.xpg6.v1#branch                  -1.74993e-09
v.xpg5.v1#branch                  -1.74993e-09
v.xpg4.v1#branch                  -1.01106e-09
v.xpg3.v1#branch                  -1.74993e-09
v.xpg2.v1#branch                  -1.74993e-09
v.xpg1.v1#branch                  -1.74993e-09



No. of Data Rows : 29937

  Measurements for Transient Analysis

responsetimea       =   1.09000e-09
responsetimea       =   1.09615e-09
responsetimea       =   2.40543e-09
responsetimea       =   2.44307e-09
responsetimeb       =   2.47522e-09
responsetimeb       =   2.53308e-09
responsetimeb       =   3.03804e-09
responsetimeb       =   3.09403e-09
npresponsetimea     =   2.40660e-09
npresponsetimea     =   2.44357e-09
npresponsetimea     =   2.95984e-09
npresponsetimea     =   2.99504e-09
npresponsetimeb     =   1.26936e-08
npresponsetimeb     =   1.27208e-08
npresponsetimeb     =   3.81319e-08
npresponsetimeb     =   3.81661e-08
responsetimeupa     =   2.48092e-09
responsetimeupa     =   2.54049e-09
responsetimeupa     =   3.04252e-09
responsetimeupa     =   3.10178e-09
responsetimeupb     =   2.56165e-09
responsetimeupb     =   2.62082e-09
responsetimeupb     =   3.12591e-09
responsetimeupb     =   3.18494e-09

Doing analysis at TEMP = 27.000000 and TNOM = 27.000000


  Measurements for Transient Analysis

responsetimea       =   1.09000e-09
responsetimea       =   1.09615e-09
responsetimea       =   2.40543e-09
responsetimea       =   2.44307e-09
responsetimeb       =   2.47522e-09
responsetimeb       =   2.53308e-09
responsetimeb       =   3.03804e-09
responsetimeb       =   3.09403e-09
npresponsetimea     =   2.40660e-09
npresponsetimea     =   2.44357e-09
npresponsetimea     =   2.95984e-09
npresponsetimea     =   2.99504e-09
npresponsetimeb     =   1.26936e-08
npresponsetimeb     =   1.27208e-08
npresponsetimeb     =   3.81319e-08
npresponsetimeb     =   3.81661e-08
responsetimeupa     =   2.48092e-09
responsetimeupa     =   2.54049e-09
responsetimeupa     =   3.04252e-09
responsetimeupa     =   3.10178e-09
responsetimeupb     =   2.56165e-09
responsetimeupb     =   2.62082e-09
responsetimeupb     =   3.12591e-09
responsetimeupb     =   3.18494e-09

CPU time since last call: 33.704 seconds.

Total CPU time: 33.704 seconds.

Total DRAM available = 128860.136719 MB.
DRAM currently available = 110454.546875 MB.
Total ngspice program size = 99.693359 MB.
Resident set size = 85.250000 MB.
Shared ngspice pages = 2.041016 MB.
Text (code) pages = 1.597656 MB.
Stack = 0 bytes.
Library pages = 83.312500 MB.

