
Circuit: *pulseloop

Doing analysis at TEMP = 27.000000 and TNOM = 27.000000

Note: Starting dynamic gmin stepping
Trying gmin =   1.0000E-03 Note: One successful gmin step
Trying gmin =   1.0000E-04 Note: One successful gmin step
Trying gmin =   1.0000E-05 Warning: Further gmin increment
Trying gmin =   5.6234E-05 Note: One successful gmin step
Trying gmin =   2.3714E-05 Note: One successful gmin step
Trying gmin =   6.4938E-06 Note: One successful gmin step
Trying gmin =   9.3057E-07 Note: One successful gmin step
Trying gmin =   9.3057E-08 Note: One successful gmin step
Trying gmin =   9.3057E-09 Note: One successful gmin step
Trying gmin =   9.3057E-10 Note: One successful gmin step
Trying gmin =   9.3057E-11 Note: One successful gmin step
Trying gmin =   9.3057E-12 Note: One successful gmin step
Trying gmin =   2.9427E-12 Note: One successful gmin step
Trying gmin =   1.0000E-12 Note: One successful gmin step
Note: Dynamic gmin stepping completed

Initial Transient Solution
--------------------------

Node                                   Voltage
----                                   -------
xpg1.1                                     1.8
xpg1.reset_loop                            1.8
xpg1.critical_node                     1.74017
snoise                                       0
outb                               9.68599e-07
xpg1.invo                          2.45993e-06
xpg1.xe                                    1.8
outa                               9.68599e-07
xpg2.1                                     1.8
xpg2.reset_loop                            1.8
xpg2.critical_node                     1.74017
xpg2.invo                          2.45993e-06
xpg2.xe                                    1.8
xpg3.1                                     1.8
xpg3.reset_loop                            1.8
xpg3.critical_node                     1.74017
npoutb                             9.68599e-07
xpg3.invo                          2.45993e-06
xpg3.xe                                    1.8
npouta                             9.68599e-07
xpg4.1                                     1.8
xpg4.reset_loop                            1.8
xpg4.critical_node                         1.8
xpg4.invo                          9.68599e-07
xpg4.xe                                    1.8
xpg5.1                                     1.8
xpg5.reset_loop                            1.8
xpg5.critical_node                     1.74017
upb                                9.68599e-07
xpg5.invo                          2.45993e-06
xpg5.xe                                    1.8
upa                                9.68599e-07
xpg6.1                                     1.8
xpg6.reset_loop                            1.8
xpg6.critical_node                     1.74017
xpg6.invo                          2.45993e-06
xpg6.xe                                    1.8
v2#branch                                    0
v.xpg6.v1#branch                  -1.74993e-09
v.xpg5.v1#branch                  -1.74993e-09
v.xpg4.v1#branch                  -1.01106e-09
v.xpg3.v1#branch                  -1.74993e-09
v.xpg2.v1#branch                  -1.74993e-09
v.xpg1.v1#branch                  -1.74993e-09



No. of Data Rows : 29206

  Measurements for Transient Analysis


Error: measure  npresponsetimeb  (WHEN) : out of interval
 .measure tran npresponsetimeb when v(npoutb)=1.2 cross=3 failed!


Error: measure  npresponsetimeb  (WHEN) : out of interval
 .measure tran npresponsetimeb when v(npoutb)=1.2 cross=4 failed!

responsetimea       =   2.22967e-09
responsetimea       =   2.24181e-09
responsetimea       =   3.18796e-09
responsetimea       =   3.21208e-09
responsetimeb       =   3.26309e-09
responsetimeb       =   3.32100e-09
responsetimeb       =   5.47414e-09
responsetimeb       =   5.51602e-09
npresponsetimea     =   2.23280e-09
npresponsetimea     =   2.23662e-09
npresponsetimea     =   3.18984e-09
npresponsetimea     =   3.21183e-09
npresponsetimeb     =   2.27726e-08
npresponsetimeb     =   2.28121e-08
responsetimeupa     =   3.26069e-09
responsetimeupa     =   3.31901e-09
responsetimeupa     =   5.57661e-09
responsetimeupa     =   5.58360e-09
responsetimeupb     =   3.34085e-09
responsetimeupb     =   3.40015e-09
responsetimeupb     =   7.73590e-09
responsetimeupb     =   7.79411e-09

Doing analysis at TEMP = 27.000000 and TNOM = 27.000000


  Measurements for Transient Analysis


Error: measure  npresponsetimeb  (WHEN) : out of interval
 .measure tran npresponsetimeb when v(npoutb)=1.2 cross=3 failed!


Error: measure  npresponsetimeb  (WHEN) : out of interval
 .measure tran npresponsetimeb when v(npoutb)=1.2 cross=4 failed!

responsetimea       =   2.22967e-09
responsetimea       =   2.24181e-09
responsetimea       =   3.18796e-09
responsetimea       =   3.21208e-09
responsetimeb       =   3.26309e-09
responsetimeb       =   3.32100e-09
responsetimeb       =   5.47414e-09
responsetimeb       =   5.51602e-09
npresponsetimea     =   2.23280e-09
npresponsetimea     =   2.23662e-09
npresponsetimea     =   3.18984e-09
npresponsetimea     =   3.21183e-09
npresponsetimeb     =   2.27726e-08
npresponsetimeb     =   2.28121e-08
responsetimeupa     =   3.26069e-09
responsetimeupa     =   3.31901e-09
responsetimeupa     =   5.57661e-09
responsetimeupa     =   5.58360e-09
responsetimeupb     =   3.34085e-09
responsetimeupb     =   3.40015e-09
responsetimeupb     =   7.73590e-09
responsetimeupb     =   7.79411e-09

CPU time since last call: 32.484 seconds.

Total CPU time: 32.484 seconds.

Total DRAM available = 128860.136719 MB.
DRAM currently available = 110457.003906 MB.
Total ngspice program size = 99.347656 MB.
Resident set size = 84.875977 MB.
Shared ngspice pages = 2.054688 MB.
Text (code) pages = 1.597656 MB.
Stack = 0 bytes.
Library pages = 82.966797 MB.

