
Circuit: *pulseloop

Doing analysis at TEMP = 27.000000 and TNOM = 27.000000

Note: Starting dynamic gmin stepping
Trying gmin =   1.0000E-03 Note: One successful gmin step
Trying gmin =   1.0000E-04 Note: One successful gmin step
Trying gmin =   1.0000E-05 Warning: Further gmin increment
Trying gmin =   5.6234E-05 Note: One successful gmin step
Trying gmin =   2.3714E-05 Note: One successful gmin step
Trying gmin =   6.4938E-06 Note: One successful gmin step
Trying gmin =   9.3057E-07 Note: One successful gmin step
Trying gmin =   9.3057E-08 Note: One successful gmin step
Trying gmin =   9.3057E-09 Note: One successful gmin step
Trying gmin =   9.3057E-10 Note: One successful gmin step
Trying gmin =   9.3057E-11 Note: One successful gmin step
Trying gmin =   9.3057E-12 Note: One successful gmin step
Trying gmin =   2.9427E-12 Note: One successful gmin step
Trying gmin =   1.0000E-12 Note: One successful gmin step
Note: Dynamic gmin stepping completed

Initial Transient Solution
--------------------------

Node                                   Voltage
----                                   -------
xpg1.1                                     1.8
xpg1.reset_loop                            1.8
xpg1.critical_node                     1.74017
snoise                                       0
outb                               9.68599e-07
xpg1.invo                          2.45993e-06
xpg1.xe                                    1.8
outa                               9.68599e-07
xpg2.1                                     1.8
xpg2.reset_loop                            1.8
xpg2.critical_node                     1.74017
xpg2.invo                          2.45993e-06
xpg2.xe                                    1.8
xpg3.1                                     1.8
xpg3.reset_loop                            1.8
xpg3.critical_node                     1.74017
npoutb                             9.68599e-07
xpg3.invo                          2.45993e-06
xpg3.xe                                    1.8
npouta                             9.68599e-07
xpg4.1                                     1.8
xpg4.reset_loop                            1.8
xpg4.critical_node                         1.8
xpg4.invo                          9.68599e-07
xpg4.xe                                    1.8
xpg5.1                                     1.8
xpg5.reset_loop                            1.8
xpg5.critical_node                     1.74017
upb                                9.68599e-07
xpg5.invo                          2.45993e-06
xpg5.xe                                    1.8
upa                                9.68599e-07
xpg6.1                                     1.8
xpg6.reset_loop                            1.8
xpg6.critical_node                     1.74017
xpg6.invo                          2.45993e-06
xpg6.xe                                    1.8
v2#branch                                    0
v.xpg6.v1#branch                  -1.74993e-09
v.xpg5.v1#branch                  -1.74993e-09
v.xpg4.v1#branch                  -1.01106e-09
v.xpg3.v1#branch                  -1.74993e-09
v.xpg2.v1#branch                  -1.74993e-09
v.xpg1.v1#branch                  -1.74993e-09

doAnalyses: TRAN:  Timestep too small; time = 1.256e-08, timestep = 1.25e-23: cause unrecorded.


tran simulation(s) aborted
Doing analysis at TEMP = 27.000000 and TNOM = 27.000000


  Measurements for Transient Analysis

responsetimea       =   9.95309e-11
responsetimea       =   1.56310e-10
responsetimea       =   4.38401e-10
responsetimea       =   4.97781e-10
responsetimeb       =   1.80430e-10
responsetimeb       =   2.38060e-10
responsetimeb       =   5.20810e-10
responsetimeb       =   5.79468e-10
npresponsetimea     =   1.00973e-10
npresponsetimea     =   1.57606e-10
npresponsetimea     =   4.39439e-10
npresponsetimea     =   4.99102e-10
npresponsetimeb     =   1.26436e-09
npresponsetimeb     =   1.29476e-09
npresponsetimeb     =   1.48141e-09
npresponsetimeb     =   1.50551e-09
responsetimeupa     =   1.83438e-10
responsetimeupa     =   2.42563e-10
responsetimeupa     =   5.23626e-10
responsetimeupa     =   5.83429e-10
responsetimeupb     =   2.64445e-10
responsetimeupb     =   3.23205e-10
responsetimeupb     =   6.06858e-10
responsetimeupb     =   6.66049e-10

CPU time since last call: 14.041 seconds.

Total CPU time: 14.041 seconds.

Total DRAM available = 128860.136719 MB.
DRAM currently available = 110477.730469 MB.
Total ngspice program size = 86.172852 MB.
Resident set size = 71.732422 MB.
Shared ngspice pages = 2.060547 MB.
Text (code) pages = 1.597656 MB.
Stack = 0 bytes.
Library pages = 69.791992 MB.

