
Circuit: *pulseloop

Doing analysis at TEMP = 27.000000 and TNOM = 27.000000

Note: Starting dynamic gmin stepping
Trying gmin =   1.0000E-03 Note: One successful gmin step
Trying gmin =   1.0000E-04 Note: One successful gmin step
Trying gmin =   1.0000E-05 Warning: Further gmin increment
Trying gmin =   5.6234E-05 Note: One successful gmin step
Trying gmin =   2.3714E-05 Note: One successful gmin step
Trying gmin =   6.4938E-06 Note: One successful gmin step
Trying gmin =   9.3057E-07 Note: One successful gmin step
Trying gmin =   9.3057E-08 Note: One successful gmin step
Trying gmin =   9.3057E-09 Note: One successful gmin step
Trying gmin =   9.3057E-10 Note: One successful gmin step
Trying gmin =   9.3057E-11 Note: One successful gmin step
Trying gmin =   9.3057E-12 Note: One successful gmin step
Trying gmin =   2.9427E-12 Note: One successful gmin step
Trying gmin =   1.0000E-12 Note: One successful gmin step
Note: Dynamic gmin stepping completed

Initial Transient Solution
--------------------------

Node                                   Voltage
----                                   -------
xpg1.1                                     1.8
xpg1.reset_loop                            1.8
xpg1.critical_node                     1.74017
snoise                                       0
outb                               9.68599e-07
xpg1.invo                          2.45993e-06
xpg1.xe                                    1.8
outa                               9.68599e-07
xpg2.1                                     1.8
xpg2.reset_loop                            1.8
xpg2.critical_node                     1.74017
xpg2.invo                          2.45993e-06
xpg2.xe                                    1.8
xpg3.1                                     1.8
xpg3.reset_loop                            1.8
xpg3.critical_node                     1.74017
npoutb                             9.68599e-07
xpg3.invo                          2.45993e-06
xpg3.xe                                    1.8
npouta                             9.68599e-07
xpg4.1                                     1.8
xpg4.reset_loop                            1.8
xpg4.critical_node                         1.8
xpg4.invo                          9.68599e-07
xpg4.xe                                    1.8
xpg5.1                                     1.8
xpg5.reset_loop                            1.8
xpg5.critical_node                     1.74017
upb                                9.68599e-07
xpg5.invo                          2.45993e-06
xpg5.xe                                    1.8
upa                                9.68599e-07
xpg6.1                                     1.8
xpg6.reset_loop                            1.8
xpg6.critical_node                     1.74017
xpg6.invo                          2.45993e-06
xpg6.xe                                    1.8
v2#branch                                    0
v.xpg6.v1#branch                  -1.74993e-09
v.xpg5.v1#branch                  -1.74993e-09
v.xpg4.v1#branch                  -1.01106e-09
v.xpg3.v1#branch                  -1.74993e-09
v.xpg2.v1#branch                  -1.74993e-09
v.xpg1.v1#branch                  -1.74993e-09



No. of Data Rows : 31687

  Measurements for Transient Analysis

responsetimea       =   2.95861e-10
responsetimea       =   3.52846e-10
responsetimea       =   7.25438e-10
responsetimea       =   7.69896e-10
responsetimeb       =   3.77510e-10
responsetimeb       =   4.35500e-10
responsetimeb       =   8.10130e-10
responsetimeb       =   8.48182e-10
npresponsetimea     =   2.96869e-10
npresponsetimea     =   3.53704e-10
npresponsetimea     =   7.26488e-10
npresponsetimea     =   7.70765e-10
npresponsetimeb     =   6.05436e-09
npresponsetimeb     =   6.07548e-09
npresponsetimeb     =   1.28483e-08
npresponsetimeb     =   1.28844e-08
responsetimeupa     =   3.79360e-10
responsetimeupa     =   4.37838e-10
responsetimeupa     =   8.11111e-10
responsetimeupa     =   8.69830e-10
responsetimeupb     =   4.60347e-10
responsetimeupb     =   5.19115e-10
responsetimeupb     =   8.95995e-10
responsetimeupb     =   9.53843e-10

Doing analysis at TEMP = 27.000000 and TNOM = 27.000000


  Measurements for Transient Analysis

responsetimea       =   2.95861e-10
responsetimea       =   3.52846e-10
responsetimea       =   7.25438e-10
responsetimea       =   7.69896e-10
responsetimeb       =   3.77510e-10
responsetimeb       =   4.35500e-10
responsetimeb       =   8.10130e-10
responsetimeb       =   8.48182e-10
npresponsetimea     =   2.96869e-10
npresponsetimea     =   3.53704e-10
npresponsetimea     =   7.26488e-10
npresponsetimea     =   7.70765e-10
npresponsetimeb     =   6.05436e-09
npresponsetimeb     =   6.07548e-09
npresponsetimeb     =   1.28483e-08
npresponsetimeb     =   1.28844e-08
responsetimeupa     =   3.79360e-10
responsetimeupa     =   4.37838e-10
responsetimeupa     =   8.11111e-10
responsetimeupa     =   8.69830e-10
responsetimeupb     =   4.60347e-10
responsetimeupb     =   5.19115e-10
responsetimeupb     =   8.95995e-10
responsetimeupb     =   9.53843e-10

CPU time since last call: 37.086 seconds.

Total CPU time: 37.086 seconds.

Total DRAM available = 128860.136719 MB.
DRAM currently available = 110441.140625 MB.
Total ngspice program size = 100.467773 MB.
Resident set size = 86.028320 MB.
Shared ngspice pages = 2.045898 MB.
Text (code) pages = 1.597656 MB.
Stack = 0 bytes.
Library pages = 84.086914 MB.

