
Circuit: *pulseloop

Doing analysis at TEMP = 27.000000 and TNOM = 27.000000

Note: Starting dynamic gmin stepping
Trying gmin =   1.0000E-03 Note: One successful gmin step
Trying gmin =   1.0000E-04 Note: One successful gmin step
Trying gmin =   1.0000E-05 Warning: Further gmin increment
Trying gmin =   5.6234E-05 Note: One successful gmin step
Trying gmin =   2.3714E-05 Note: One successful gmin step
Trying gmin =   6.4938E-06 Note: One successful gmin step
Trying gmin =   9.3057E-07 Note: One successful gmin step
Trying gmin =   9.3057E-08 Note: One successful gmin step
Trying gmin =   9.3057E-09 Note: One successful gmin step
Trying gmin =   9.3057E-10 Note: One successful gmin step
Trying gmin =   9.3057E-11 Note: One successful gmin step
Trying gmin =   9.3057E-12 Note: One successful gmin step
Trying gmin =   2.9427E-12 Note: One successful gmin step
Trying gmin =   1.0000E-12 Note: One successful gmin step
Note: Dynamic gmin stepping completed

Initial Transient Solution
--------------------------

Node                                   Voltage
----                                   -------
xpg1.1                                     1.8
xpg1.reset_loop                            1.8
xpg1.critical_node                     1.74017
snoise                                       0
outb                               9.68599e-07
xpg1.invo                          2.45993e-06
xpg1.xe                                    1.8
outa                               9.68599e-07
xpg2.1                                     1.8
xpg2.reset_loop                            1.8
xpg2.critical_node                     1.74017
xpg2.invo                          2.45993e-06
xpg2.xe                                    1.8
xpg3.1                                     1.8
xpg3.reset_loop                            1.8
xpg3.critical_node                     1.74017
npoutb                             9.68599e-07
xpg3.invo                          2.45993e-06
xpg3.xe                                    1.8
npouta                             9.68599e-07
xpg4.1                                     1.8
xpg4.reset_loop                            1.8
xpg4.critical_node                         1.8
xpg4.invo                          9.68599e-07
xpg4.xe                                    1.8
xpg5.1                                     1.8
xpg5.reset_loop                            1.8
xpg5.critical_node                     1.74017
upb                                9.68599e-07
xpg5.invo                          2.45993e-06
xpg5.xe                                    1.8
upa                                9.68599e-07
xpg6.1                                     1.8
xpg6.reset_loop                            1.8
xpg6.critical_node                     1.74017
xpg6.invo                          2.45993e-06
xpg6.xe                                    1.8
v2#branch                                    0
v.xpg6.v1#branch                  -1.74993e-09
v.xpg5.v1#branch                  -1.74993e-09
v.xpg4.v1#branch                  -1.01106e-09
v.xpg3.v1#branch                  -1.74993e-09
v.xpg2.v1#branch                  -1.74993e-09
v.xpg1.v1#branch                  -1.74993e-09

doAnalyses: TRAN:  Timestep too small; time = 8.836e-08, timestep = 1.25e-23: cause unrecorded.


tran simulation(s) aborted
Doing analysis at TEMP = 27.000000 and TNOM = 27.000000


  Measurements for Transient Analysis

responsetimea       =   1.55740e-10
responsetimea       =   2.13474e-10
responsetimea       =   5.01558e-10
responsetimea       =   5.73565e-10
responsetimeb       =   2.37542e-10
responsetimeb       =   2.92954e-10
responsetimeb       =   5.78618e-10
responsetimeb       =   6.42452e-10
npresponsetimea     =   1.57027e-10
npresponsetimea     =   2.14598e-10
npresponsetimea     =   3.15040e-10
npresponsetimea     =   3.76861e-10
npresponsetimeb     =   1.00625e-09
npresponsetimeb     =   1.04181e-09
npresponsetimeb     =   1.12309e-09
npresponsetimeb     =   1.18310e-09
responsetimeupa     =   2.39826e-10
responsetimeupa     =   2.98442e-10
responsetimeupa     =   4.17056e-10
responsetimeupa     =   4.69661e-10
responsetimeupb     =   3.21001e-10
responsetimeupb     =   3.80455e-10
responsetimeupb     =   5.00743e-10
responsetimeupb     =   5.59520e-10

CPU time since last call: 38.156 seconds.

Total CPU time: 38.156 seconds.

Total DRAM available = 128860.136719 MB.
DRAM currently available = 110423.031250 MB.
Total ngspice program size = 99.971680 MB.
Resident set size = 85.549805 MB.
Shared ngspice pages = 2.083008 MB.
Text (code) pages = 1.597656 MB.
Stack = 0 bytes.
Library pages = 83.590820 MB.

