
Circuit: *pulseloop

Doing analysis at TEMP = 27.000000 and TNOM = 27.000000

Note: Starting dynamic gmin stepping
Trying gmin =   1.0000E-03 Note: One successful gmin step
Trying gmin =   1.0000E-04 Note: One successful gmin step
Trying gmin =   1.0000E-05 Warning: Further gmin increment
Trying gmin =   5.6234E-05 Note: One successful gmin step
Trying gmin =   2.3714E-05 Note: One successful gmin step
Trying gmin =   6.4938E-06 Note: One successful gmin step
Trying gmin =   9.3057E-07 Note: One successful gmin step
Trying gmin =   9.3057E-08 Note: One successful gmin step
Trying gmin =   9.3057E-09 Note: One successful gmin step
Trying gmin =   9.3057E-10 Note: One successful gmin step
Trying gmin =   9.3057E-11 Note: One successful gmin step
Trying gmin =   9.3057E-12 Note: One successful gmin step
Trying gmin =   2.9427E-12 Note: One successful gmin step
Trying gmin =   1.0000E-12 Note: One successful gmin step
Note: Dynamic gmin stepping completed

Initial Transient Solution
--------------------------

Node                                   Voltage
----                                   -------
xpg1.1                                     1.8
xpg1.reset_loop                            1.8
xpg1.critical_node                     1.74017
snoise                                       0
outb                               9.68599e-07
xpg1.invo                          2.45993e-06
xpg1.xe                                    1.8
outa                               9.68599e-07
xpg2.1                                     1.8
xpg2.reset_loop                            1.8
xpg2.critical_node                     1.74017
xpg2.invo                          2.45993e-06
xpg2.xe                                    1.8
xpg3.1                                     1.8
xpg3.reset_loop                            1.8
xpg3.critical_node                     1.74017
npoutb                             9.68599e-07
xpg3.invo                          2.45993e-06
xpg3.xe                                    1.8
npouta                             9.68599e-07
xpg4.1                                     1.8
xpg4.reset_loop                            1.8
xpg4.critical_node                         1.8
xpg4.invo                          9.68599e-07
xpg4.xe                                    1.8
xpg5.1                                     1.8
xpg5.reset_loop                            1.8
xpg5.critical_node                     1.74017
upb                                9.68599e-07
xpg5.invo                          2.45993e-06
xpg5.xe                                    1.8
upa                                9.68599e-07
xpg6.1                                     1.8
xpg6.reset_loop                            1.8
xpg6.critical_node                     1.74017
xpg6.invo                          2.45993e-06
xpg6.xe                                    1.8
v2#branch                                    0
v.xpg6.v1#branch                  -1.74993e-09
v.xpg5.v1#branch                  -1.74993e-09
v.xpg4.v1#branch                  -1.01106e-09
v.xpg3.v1#branch                  -1.74993e-09
v.xpg2.v1#branch                  -1.74993e-09
v.xpg1.v1#branch                  -1.74993e-09

doAnalyses: TRAN:  Timestep too small; time = 5.032e-08, timestep = 1.25e-23: cause unrecorded.


tran simulation(s) aborted
Doing analysis at TEMP = 27.000000 and TNOM = 27.000000


  Measurements for Transient Analysis

responsetimea       =   1.51206e-10
responsetimea       =   2.02114e-10
responsetimea       =   4.18261e-10
responsetimea       =   4.81193e-10
responsetimeb       =   2.33689e-10
responsetimeb       =   2.88407e-10
responsetimeb       =   5.10758e-10
responsetimeb       =   5.65769e-10
npresponsetimea     =   1.52880e-10
npresponsetimea     =   2.02750e-10
npresponsetimea     =   4.19274e-10
npresponsetimea     =   4.81523e-10
npresponsetimeb     =   2.05345e-09
npresponsetimeb     =   2.09663e-09
npresponsetimeb     =   3.37782e-09
npresponsetimeb     =   3.42837e-09
responsetimeupa     =   2.35401e-10
responsetimeupa     =   2.94397e-10
responsetimeupa     =   5.03936e-10
responsetimeupa     =   5.66891e-10
responsetimeupb     =   3.17407e-10
responsetimeupb     =   3.74796e-10
responsetimeupb     =   5.99912e-10
responsetimeupb     =   7.37084e-10

CPU time since last call: 26.150 seconds.

Total CPU time: 26.150 seconds.

Total DRAM available = 128860.136719 MB.
DRAM currently available = 110451.617188 MB.
Total ngspice program size = 92.894531 MB.
Resident set size = 78.409180 MB.
Shared ngspice pages = 2.033203 MB.
Text (code) pages = 1.597656 MB.
Stack = 0 bytes.
Library pages = 76.513672 MB.

