
Circuit: *pulseloop

Doing analysis at TEMP = 27.000000 and TNOM = 27.000000

Note: Starting dynamic gmin stepping
Trying gmin =   1.0000E-03 Note: One successful gmin step
Trying gmin =   1.0000E-04 Note: One successful gmin step
Trying gmin =   1.0000E-05 Warning: Further gmin increment
Trying gmin =   5.6234E-05 Note: One successful gmin step
Trying gmin =   2.3714E-05 Note: One successful gmin step
Trying gmin =   6.4938E-06 Note: One successful gmin step
Trying gmin =   9.3057E-07 Note: One successful gmin step
Trying gmin =   9.3057E-08 Note: One successful gmin step
Trying gmin =   9.3057E-09 Note: One successful gmin step
Trying gmin =   9.3057E-10 Note: One successful gmin step
Trying gmin =   9.3057E-11 Note: One successful gmin step
Trying gmin =   9.3057E-12 Note: One successful gmin step
Trying gmin =   2.9427E-12 Note: One successful gmin step
Trying gmin =   1.0000E-12 Note: One successful gmin step
Note: Dynamic gmin stepping completed

Initial Transient Solution
--------------------------

Node                                   Voltage
----                                   -------
xpg1.1                                     1.8
xpg1.reset_loop                            1.8
xpg1.critical_node                     1.74017
snoise                                       0
outb                               9.68599e-07
xpg1.invo                          2.45993e-06
xpg1.xe                                    1.8
outa                               9.68599e-07
xpg2.1                                     1.8
xpg2.reset_loop                            1.8
xpg2.critical_node                     1.74017
xpg2.invo                          2.45993e-06
xpg2.xe                                    1.8
xpg3.1                                     1.8
xpg3.reset_loop                            1.8
xpg3.critical_node                     1.74017
npoutb                             9.68599e-07
xpg3.invo                          2.45993e-06
xpg3.xe                                    1.8
npouta                             9.68599e-07
xpg4.1                                     1.8
xpg4.reset_loop                            1.8
xpg4.critical_node                         1.8
xpg4.invo                          9.68599e-07
xpg4.xe                                    1.8
xpg5.1                                     1.8
xpg5.reset_loop                            1.8
xpg5.critical_node                     1.74017
upb                                9.68599e-07
xpg5.invo                          2.45993e-06
xpg5.xe                                    1.8
upa                                9.68599e-07
xpg6.1                                     1.8
xpg6.reset_loop                            1.8
xpg6.critical_node                     1.74017
xpg6.invo                          2.45993e-06
xpg6.xe                                    1.8
v2#branch                                    0
v.xpg6.v1#branch                  -1.74993e-09
v.xpg5.v1#branch                  -1.74993e-09
v.xpg4.v1#branch                  -1.01106e-09
v.xpg3.v1#branch                  -1.74993e-09
v.xpg2.v1#branch                  -1.74993e-09
v.xpg1.v1#branch                  -1.74993e-09

doAnalyses: TRAN:  Timestep too small; time = 2.942e-08, timestep = 1.25e-23: trouble with node "m.xpg4.xm10.msky130_fd_pr__pfet_01v8#body"


tran simulation(s) aborted
Doing analysis at TEMP = 27.000000 and TNOM = 27.000000


  Measurements for Transient Analysis

responsetimea       =   2.96952e-10
responsetimea       =   3.44367e-10
responsetimea       =   5.75360e-10
responsetimea       =   6.32368e-10
responsetimeb       =   3.77736e-10
responsetimeb       =   4.34948e-10
responsetimeb       =   6.59638e-10
responsetimeb       =   7.17916e-10
npresponsetimea     =   2.97898e-10
npresponsetimea     =   3.44684e-10
npresponsetimea     =   5.76519e-10
npresponsetimea     =   6.33456e-10
npresponsetimeb     =   6.75764e-10
npresponsetimeb     =   7.11100e-10
npresponsetimeb     =   1.35985e-09
npresponsetimeb     =   1.39195e-09
responsetimeupa     =   3.79671e-10
responsetimeupa     =   4.39377e-10
responsetimeupa     =   6.61639e-10
responsetimeupa     =   7.20574e-10
responsetimeupb     =   4.60587e-10
responsetimeupb     =   5.19381e-10
responsetimeupb     =   7.44267e-10
responsetimeupb     =   8.03227e-10

CPU time since last call: 18.836 seconds.

Total CPU time: 18.836 seconds.

Total DRAM available = 128860.136719 MB.
DRAM currently available = 110475.062500 MB.
Total ngspice program size = 88.961914 MB.
Resident set size = 74.447266 MB.
Shared ngspice pages = 2.001953 MB.
Text (code) pages = 1.597656 MB.
Stack = 0 bytes.
Library pages = 72.581055 MB.

