
Circuit: *pulseloop

Doing analysis at TEMP = 27.000000 and TNOM = 27.000000

Note: Starting dynamic gmin stepping
Trying gmin =   1.0000E-03 Note: One successful gmin step
Trying gmin =   1.0000E-04 Note: One successful gmin step
Trying gmin =   1.0000E-05 Warning: Further gmin increment
Trying gmin =   5.6234E-05 Note: One successful gmin step
Trying gmin =   2.3714E-05 Note: One successful gmin step
Trying gmin =   6.4938E-06 Note: One successful gmin step
Trying gmin =   9.3057E-07 Note: One successful gmin step
Trying gmin =   9.3057E-08 Note: One successful gmin step
Trying gmin =   9.3057E-09 Note: One successful gmin step
Trying gmin =   9.3057E-10 Note: One successful gmin step
Trying gmin =   9.3057E-11 Note: One successful gmin step
Trying gmin =   9.3057E-12 Note: One successful gmin step
Trying gmin =   2.9427E-12 Note: One successful gmin step
Trying gmin =   1.0000E-12 Note: One successful gmin step
Note: Dynamic gmin stepping completed

Initial Transient Solution
--------------------------

Node                                   Voltage
----                                   -------
xpg1.1                                     1.8
xpg1.reset_loop                            1.8
xpg1.critical_node                     1.74017
snoise                                       0
outb                               9.68599e-07
xpg1.invo                          2.45993e-06
xpg1.xe                                    1.8
outa                               9.68599e-07
xpg2.1                                     1.8
xpg2.reset_loop                            1.8
xpg2.critical_node                     1.74017
xpg2.invo                          2.45993e-06
xpg2.xe                                    1.8
xpg3.1                                     1.8
xpg3.reset_loop                            1.8
xpg3.critical_node                     1.74017
npoutb                             9.68599e-07
xpg3.invo                          2.45993e-06
xpg3.xe                                    1.8
npouta                             9.68599e-07
xpg4.1                                     1.8
xpg4.reset_loop                            1.8
xpg4.critical_node                         1.8
xpg4.invo                          9.68599e-07
xpg4.xe                                    1.8
xpg5.1                                     1.8
xpg5.reset_loop                            1.8
xpg5.critical_node                     1.74017
upb                                9.68599e-07
xpg5.invo                          2.45993e-06
xpg5.xe                                    1.8
upa                                9.68599e-07
xpg6.1                                     1.8
xpg6.reset_loop                            1.8
xpg6.critical_node                     1.74017
xpg6.invo                          2.45993e-06
xpg6.xe                                    1.8
v2#branch                                    0
v.xpg6.v1#branch                  -1.74993e-09
v.xpg5.v1#branch                  -1.74993e-09
v.xpg4.v1#branch                  -1.01106e-09
v.xpg3.v1#branch                  -1.74993e-09
v.xpg2.v1#branch                  -1.74993e-09
v.xpg1.v1#branch                  -1.74993e-09



No. of Data Rows : 28488

  Measurements for Transient Analysis


Error: measure  npresponsetimeb  (WHEN) : out of interval
 .measure tran npresponsetimeb when v(npoutb)=1.2 cross=1 failed!


Error: measure  npresponsetimeb  (WHEN) : out of interval
 .measure tran npresponsetimeb when v(npoutb)=1.2 cross=2 failed!


Error: measure  npresponsetimeb  (WHEN) : out of interval
 .measure tran npresponsetimeb when v(npoutb)=1.2 cross=3 failed!


Error: measure  npresponsetimeb  (WHEN) : out of interval
 .measure tran npresponsetimeb when v(npoutb)=1.2 cross=4 failed!

responsetimea       =   2.73751e-08
responsetimea       =   2.74146e-08
responsetimea       =   3.36270e-08
responsetimea       =   3.36444e-08
responsetimeb       =   2.74495e-08
responsetimeb       =   2.75098e-08
responsetimeb       =   3.38101e-08
responsetimeb       =   3.38336e-08
npresponsetimea     =   2.73763e-08
npresponsetimea     =   2.74150e-08
npresponsetimea     =   3.36298e-08
npresponsetimea     =   3.36433e-08
responsetimeupa     =   2.74545e-08
responsetimeupa     =   2.75130e-08
responsetimeupa     =   3.95953e-08
responsetimeupa     =   3.96432e-08
responsetimeupb     =   2.75359e-08
responsetimeupb     =   2.75937e-08
responsetimeupb     =   3.96780e-08
responsetimeupb     =   3.97368e-08

Doing analysis at TEMP = 27.000000 and TNOM = 27.000000


  Measurements for Transient Analysis


Error: measure  npresponsetimeb  (WHEN) : out of interval
 .measure tran npresponsetimeb when v(npoutb)=1.2 cross=1 failed!


Error: measure  npresponsetimeb  (WHEN) : out of interval
 .measure tran npresponsetimeb when v(npoutb)=1.2 cross=2 failed!


Error: measure  npresponsetimeb  (WHEN) : out of interval
 .measure tran npresponsetimeb when v(npoutb)=1.2 cross=3 failed!


Error: measure  npresponsetimeb  (WHEN) : out of interval
 .measure tran npresponsetimeb when v(npoutb)=1.2 cross=4 failed!

responsetimea       =   2.73751e-08
responsetimea       =   2.74146e-08
responsetimea       =   3.36270e-08
responsetimea       =   3.36444e-08
responsetimeb       =   2.74495e-08
responsetimeb       =   2.75098e-08
responsetimeb       =   3.38101e-08
responsetimeb       =   3.38336e-08
npresponsetimea     =   2.73763e-08
npresponsetimea     =   2.74150e-08
npresponsetimea     =   3.36298e-08
npresponsetimea     =   3.36433e-08
responsetimeupa     =   2.74545e-08
responsetimeupa     =   2.75130e-08
responsetimeupa     =   3.95953e-08
responsetimeupa     =   3.96432e-08
responsetimeupb     =   2.75359e-08
responsetimeupb     =   2.75937e-08
responsetimeupb     =   3.96780e-08
responsetimeupb     =   3.97368e-08

CPU time since last call: 31.044 seconds.

Total CPU time: 31.044 seconds.

Total DRAM available = 128860.136719 MB.
DRAM currently available = 110470.964844 MB.
Total ngspice program size = 98.914062 MB.
Resident set size = 84.486328 MB.
Shared ngspice pages = 2.049805 MB.
Text (code) pages = 1.597656 MB.
Stack = 0 bytes.
Library pages = 82.533203 MB.

