
Circuit: *pulseloop

Doing analysis at TEMP = 27.000000 and TNOM = 27.000000

Note: Starting dynamic gmin stepping
Trying gmin =   1.0000E-03 Note: One successful gmin step
Trying gmin =   1.0000E-04 Note: One successful gmin step
Trying gmin =   1.0000E-05 Warning: Further gmin increment
Trying gmin =   5.6234E-05 Note: One successful gmin step
Trying gmin =   2.3714E-05 Note: One successful gmin step
Trying gmin =   6.4938E-06 Note: One successful gmin step
Trying gmin =   9.3057E-07 Note: One successful gmin step
Trying gmin =   9.3057E-08 Note: One successful gmin step
Trying gmin =   9.3057E-09 Note: One successful gmin step
Trying gmin =   9.3057E-10 Note: One successful gmin step
Trying gmin =   9.3057E-11 Note: One successful gmin step
Trying gmin =   9.3057E-12 Note: One successful gmin step
Trying gmin =   2.9427E-12 Note: One successful gmin step
Trying gmin =   1.0000E-12 Note: One successful gmin step
Note: Dynamic gmin stepping completed

Initial Transient Solution
--------------------------

Node                                   Voltage
----                                   -------
xpg1.1                                     1.8
xpg1.reset_loop                            1.8
xpg1.critical_node                     1.74017
snoise                                       0
outb                               9.68599e-07
xpg1.invo                          2.45993e-06
xpg1.xe                                    1.8
outa                               9.68599e-07
xpg2.1                                     1.8
xpg2.reset_loop                            1.8
xpg2.critical_node                     1.74017
xpg2.invo                          2.45993e-06
xpg2.xe                                    1.8
xpg3.1                                     1.8
xpg3.reset_loop                            1.8
xpg3.critical_node                     1.74017
npoutb                             9.68599e-07
xpg3.invo                          2.45993e-06
xpg3.xe                                    1.8
npouta                             9.68599e-07
xpg4.1                                     1.8
xpg4.reset_loop                            1.8
xpg4.critical_node                         1.8
xpg4.invo                          9.68599e-07
xpg4.xe                                    1.8
xpg5.1                                     1.8
xpg5.reset_loop                            1.8
xpg5.critical_node                     1.74017
upb                                9.68599e-07
xpg5.invo                          2.45993e-06
xpg5.xe                                    1.8
upa                                9.68599e-07
xpg6.1                                     1.8
xpg6.reset_loop                            1.8
xpg6.critical_node                     1.74017
xpg6.invo                          2.45993e-06
xpg6.xe                                    1.8
v2#branch                                    0
v.xpg6.v1#branch                  -1.74993e-09
v.xpg5.v1#branch                  -1.74993e-09
v.xpg4.v1#branch                  -1.01106e-09
v.xpg3.v1#branch                  -1.74993e-09
v.xpg2.v1#branch                  -1.74993e-09
v.xpg1.v1#branch                  -1.74993e-09

doAnalyses: TRAN:  Timestep too small; time = 1.86e-08, timestep = 1.25e-23: cause unrecorded.


tran simulation(s) aborted
Doing analysis at TEMP = 27.000000 and TNOM = 27.000000


  Measurements for Transient Analysis

responsetimea       =   1.19909e-10
responsetimea       =   1.79063e-10
responsetimea       =   2.31719e-10
responsetimea       =   2.84606e-10
responsetimeb       =   2.08093e-10
responsetimeb       =   2.57870e-10
responsetimeb       =   3.10319e-10
responsetimeb       =   3.70604e-10
npresponsetimea     =   1.20764e-10
npresponsetimea     =   1.79075e-10
npresponsetimea     =   2.31560e-10
npresponsetimea     =   2.92008e-10
npresponsetimeb     =   8.85332e-10
npresponsetimeb     =   9.19617e-10
npresponsetimeb     =   1.31226e-09
npresponsetimeb     =   1.35659e-09
responsetimeupa     =   2.03789e-10
responsetimeupa     =   2.63436e-10
responsetimeupa     =   3.11085e-10
responsetimeupa     =   3.65674e-10
responsetimeupb     =   2.94780e-10
responsetimeupb     =   3.31449e-10
responsetimeupb     =   3.89626e-10
responsetimeupb     =   4.49911e-10

CPU time since last call: 15.582 seconds.

Total CPU time: 15.582 seconds.

Total DRAM available = 128860.136719 MB.
DRAM currently available = 110488.308594 MB.
Total ngspice program size = 87.178711 MB.
Resident set size = 72.738281 MB.
Shared ngspice pages = 2.032227 MB.
Text (code) pages = 1.597656 MB.
Stack = 0 bytes.
Library pages = 70.797852 MB.

