
Circuit: *pulseloop

Doing analysis at TEMP = 27.000000 and TNOM = 27.000000


Initial Transient Solution
--------------------------

Node                                   Voltage
----                                   -------
xpg.1                                      1.8
xpg.reset_loop                             1.8
xpg.critical_node                          1.8
snoise                                       0
xpg.da                               0.0450484
xpg.ca                                 0.16416
xpg.invo                           9.68599e-07
xpg.xe                                     1.8
out                                9.68599e-07
v2#branch                                    0
v.xpg.v1#branch                   -1.01105e-09



No. of Data Rows : 2851

  Measurements for Transient Analysis


Error: measure  responsetime  (WHEN) : out of interval
 .measure tran responsetime when v(out)=1.2 cross=1 failed!


Doing analysis at TEMP = 27.000000 and TNOM = 27.000000


  Measurements for Transient Analysis


Error: measure  responsetime  (WHEN) : out of interval
 .measure tran responsetime when v(out)=1.2 cross=1 failed!


CPU time since last call: 8.698 seconds.

Total CPU time: 8.698 seconds.

Total DRAM available = 128860.191406 MB.
DRAM currently available = 57656.371094 MB.
Total ngspice program size = 34.494141 MB.
Resident set size = 20.079102 MB.
Shared ngspice pages = 2.095703 MB.
Text (code) pages = 1.597656 MB.
Stack = 0 bytes.
Library pages = 18.113281 MB.

