
Circuit: *pulseloop

Doing analysis at TEMP = 27.000000 and TNOM = 27.000000


Initial Transient Solution
--------------------------

Node                                   Voltage
----                                   -------
xpg.1                                      1.8
xpg.reset_loop                             1.8
xpg.critical_node                          1.8
snoise                                       0
xpg.invo                           9.68599e-07
xpg.xe                                     1.8
out                                9.68599e-07
v2#branch                                    0
v.xpg.v1#branch                   -1.01106e-09

doAnalyses: TRAN:  Timestep too small; time = 5.4e-09, timestep = 1.25e-23: trouble with node "xpg.reset_loop"


tran simulation(s) aborted
Doing analysis at TEMP = 27.000000 and TNOM = 27.000000


  Measurements for Transient Analysis

responsetime        =   2.10338e-10

CPU time since last call: 8.189 seconds.

Total CPU time: 8.189 seconds.

Total DRAM available = 128860.191406 MB.
DRAM currently available = 57961.746094 MB.
Total ngspice program size = 32.096680 MB.
Resident set size = 17.583984 MB.
Shared ngspice pages = 1.979492 MB.
Text (code) pages = 1.597656 MB.
Stack = 0 bytes.
Library pages = 15.715820 MB.

