
Circuit: *pulseloop

Doing analysis at TEMP = 27.000000 and TNOM = 27.000000


Initial Transient Solution
--------------------------

Node                                   Voltage
----                                   -------
xpg.1                                      1.8
xpg.reset_loop                             1.8
xpg.critical_node                          1.8
snoise                                       0
xpg.ea                               0.0148394
xpg.da                               0.0486944
xpg.ca                                0.164238
xpg.invo                           9.68599e-07
xpg.xe                                     1.8
out                                9.68599e-07
v2#branch                                    0
v.xpg.v1#branch                   -1.01105e-09

doAnalyses: TRAN:  Timestep too small; time = 7.7e-09, timestep = 1.25e-23: trouble with node "xpg.critical_node"


tran simulation(s) aborted
Doing analysis at TEMP = 27.000000 and TNOM = 27.000000


  Measurements for Transient Analysis

responsetime        =   4.21568e-10

CPU time since last call: 8.826 seconds.

Total CPU time: 8.826 seconds.

Total DRAM available = 128860.191406 MB.
DRAM currently available = 57494.179688 MB.
Total ngspice program size = 35.483398 MB.
Resident set size = 20.990234 MB.
Shared ngspice pages = 1.970703 MB.
Text (code) pages = 1.597656 MB.
Stack = 0 bytes.
Library pages = 19.102539 MB.

