
Circuit: *pulseloop

Doing analysis at TEMP = 27.000000 and TNOM = 27.000000


Initial Transient Solution
--------------------------

Node                                   Voltage
----                                   -------
pos_supply                                 1.8
xpg1.reset_loop                       0.863901
xpg1.critical_node                    0.863901
neg_supply                                   0
outa                                  0.863901
xpg1.invo                             0.863901
xpg1.xe                               0.863901
outb                                  0.863901
xpg2.reset_loop                       0.863901
xpg2.critical_node                    0.863901
snoise                                       0
xpg2.bs                               0.129781
xpg2.invo                             0.863901
xpg2.xe                               0.863901
v2#branch                                    0
v4#branch                          0.000118001
v3#branch                         -0.000118001



No. of Data Rows : 72124
responsetimea1      =  2.782887e-10
responsetimea2      =  3.393668e-10
responsetimea3      =  4.466293e-10
responsetimea4      =  5.084818e-10
responsetimeb1      =  2.021877e-10
responsetimeb2      =  2.385344e-10
responsetimeb3      =  3.611455e-10
responsetimeb4      =  4.184813e-10
tdiff = 2.301931e-10
iavg                =  -2.004834e-04 from=  2.782887e-10 to=  5.150000e-10
iavg = -2.00483e-04
Note: No ".plot", ".print", or ".fourier" lines; no simulations run
