
Circuit: *pulseloop

Doing analysis at TEMP = 27.000000 and TNOM = 27.000000


Initial Transient Solution
--------------------------

Node                                   Voltage
----                                   -------
pos_supply                                 1.8
xpg1.reset_loop                       0.863901
xpg1.critical_node                    0.863901
neg_supply                                   0
outa                                  0.863901
xpg1.invo                             0.863901
xpg1.xe                               0.863901
outb                                  0.863901
xpg2.reset_loop                       0.863901
xpg2.critical_node                    0.863901
snoise                                       0
xpg2.bs                               0.129781
xpg2.invo                             0.863901
xpg2.xe                               0.863901
v2#branch                                    0
v4#branch                          0.000118001
v3#branch                         -0.000118001



No. of Data Rows : 2067
responsetimea1      =  3.149956e-11
responsetimea2      =  7.420284e-11
responsetimea3      =  1.306483e-10
responsetimea4      =  2.211793e-10
responsetimeb1      =  5.888667e-11
responsetimeb2      =  1.414509e-10
responsetimeb3      =  2.122550e-10
responsetimeb4      =  2.902445e-10
tdiff = 1.896797e-10
iavg                =  -2.725452e-04 from=  3.149956e-11 to=  2.214349e-10
iavg = -2.72545e-04
Note: No ".plot", ".print", or ".fourier" lines; no simulations run
