
Circuit: *pulseloop

Doing analysis at TEMP = 27.000000 and TNOM = 27.000000


Initial Transient Solution
--------------------------

Node                                   Voltage
----                                   -------
pos_supply                                 1.8
xpg1.reset_loop                       0.863901
xpg1.critical_node                    0.863901
neg_supply                                   0
outa                                  0.863901
xpg1.invo                             0.863901
xpg1.xe                               0.863901
outb                                  0.863901
xpg2.reset_loop                       0.863901
xpg2.critical_node                    0.863901
snoise                                       0
xpg2.bs                               0.129781
xpg2.invo                             0.863901
xpg2.xe                               0.863901
v2#branch                                    0
v4#branch                          0.000118001
v3#branch                         -0.000118001



No. of Data Rows : 4064
responsetimea1      =  6.347604e-11
responsetimea2      =  1.022512e-10
responsetimea3      =  1.745654e-10
responsetimea4      =  2.449016e-10
responsetimeb1      =  1.023206e-10
responsetimeb2      =  1.713604e-10
responsetimeb3      =  2.579160e-10
responsetimeb4      =  3.166421e-10
tdiff = 1.814256e-10
iavg                =  -2.472765e-04 from=  6.347604e-11 to=  2.470000e-10
iavg = -2.47276e-04
Note: No ".plot", ".print", or ".fourier" lines; no simulations run
