
Circuit: *pulseloop

Doing analysis at TEMP = 27.000000 and TNOM = 27.000000


Initial Transient Solution
--------------------------

Node                                   Voltage
----                                   -------
pos_supply                                 1.8
xpg1.reset_loop                       0.863901
xpg1.critical_node                    0.863901
neg_supply                                   0
outa                                  0.863901
xpg1.invo                             0.863901
xpg1.xe                               0.863901
outb                                  0.863901
xpg2.reset_loop                       0.863901
xpg2.critical_node                    0.863901
snoise                                       0
xpg2.bs                               0.129781
xpg2.invo                             0.863901
xpg2.xe                               0.863901
v2#branch                                    0
v4#branch                          0.000118001
v3#branch                         -0.000118001



No. of Data Rows : 18254
responsetimea1      =  2.416680e-10
responsetimea2      =  3.017513e-10
responsetimea3      =  4.096761e-10
responsetimea4      =  4.706779e-10
responsetimeb1      =  1.708798e-10
responsetimeb2      =  2.033717e-10
responsetimeb3      =  3.235107e-10
responsetimeb4      =  3.811947e-10
tdiff = 2.290099e-10
iavg                =  -2.007174e-04 from=  2.416680e-10 to=  4.741654e-10
iavg = -2.00717e-04
Note: No ".plot", ".print", or ".fourier" lines; no simulations run
