
Circuit: *pulseloop

Doing analysis at TEMP = 27.000000 and TNOM = 27.000000


Initial Transient Solution
--------------------------

Node                                   Voltage
----                                   -------
pos_supply                                 1.8
xpg1.reset_loop                       0.863901
xpg1.critical_node                    0.863901
neg_supply                                   0
outa                                  0.863901
xpg1.invo                             0.863901
xpg1.xe                               0.863901
outb                                  0.863901
xpg2.reset_loop                       0.863901
xpg2.critical_node                    0.863901
snoise                                       0
xpg2.bs                               0.129781
xpg2.invo                             0.863901
xpg2.xe                               0.863901
v2#branch                                    0
v4#branch                          0.000118001
v3#branch                         -0.000118001



No. of Data Rows : 5014
responsetimea1      =  6.077932e-11
responsetimea2      =  1.258970e-10
responsetimea3      =  1.901209e-10
responsetimea4      =  2.710135e-10
responsetimeb1      =  1.084047e-10
responsetimeb2      =  1.961122e-10
responsetimeb3      =  2.729536e-10

Error: measure  responsetimeb4  (WHEN) : out of interval
 meas tran responsetimeb4 when v(outb)=1.2 cross=4 failed!

tdiff = 2.102342e-10
iavg                =  -2.727497e-04 from=  6.077932e-11 to=  2.744925e-10
iavg = -2.72750e-04
Note: No ".plot", ".print", or ".fourier" lines; no simulations run
