
Circuit: *pulseloop

Doing analysis at TEMP = 27.000000 and TNOM = 27.000000


Initial Transient Solution
--------------------------

Node                                   Voltage
----                                   -------
pos_supply                                 1.8
xpg1.reset_loop                       0.863901
xpg1.critical_node                    0.863901
neg_supply                                   0
outa                                  0.863901
xpg1.invo                             0.863901
xpg1.xe                               0.863901
outb                                  0.863901
xpg2.reset_loop                       0.863901
xpg2.critical_node                    0.863901
snoise                                       0
xpg2.bs                               0.129781
xpg2.invo                             0.863901
xpg2.xe                               0.863901
v2#branch                                    0
v4#branch                          0.000118001
v3#branch                         -0.000118001



No. of Data Rows : 8563
responsetimea1      =  4.715882e-11
responsetimea2      =  8.098882e-11
responsetimea3      =  1.125466e-10
responsetimea4      =  2.293309e-10
responsetimeb1      =  6.705756e-11
responsetimeb2      =  1.490916e-10
responsetimeb3      =  1.853349e-10

Error: measure  responsetimeb4  (WHEN) : out of interval
 meas tran responsetimeb4 when v(outb)=1.2 cross=4 failed!

iavg_start_to_response_a1=  -1.328524e-04 from=  0.000000e+00 to=  5.364166e-11
iavg_start_to_response_b1=  -1.604809e-04 from=  0.000000e+00 to=  7.500000e-11
iavg_from_response_a1_to_response_a4=  -2.857106e-04 from=  4.715882e-11 to=  2.342874e-10

Error: measure  iavg_from_response_b1_to_response_b4  (TRIG) : bad syntax of ??
 meas tran iavg_from_response_b1_to_response_b4 avg i(v3) from=6.705756e-11 to=responsetimeb4 failed!

iavg_from_response_a1_to_response_b1=  0.000000e+00 from=  6.705756e-11 to=  7.500000e-11
Note: No ".plot", ".print", or ".fourier" lines; no simulations run
