
Circuit: *pulseloop

Doing analysis at TEMP = 27.000000 and TNOM = 27.000000


Initial Transient Solution
--------------------------

Node                                   Voltage
----                                   -------
pos_supply                                 1.8
xpg1.reset_loop                       0.863901
xpg1.critical_node                    0.863901
neg_supply                                   0
outa                                  0.863901
xpg1.invo                             0.863901
xpg1.xe                               0.863901
outb                                  0.863901
xpg2.reset_loop                       0.863901
xpg2.critical_node                    0.863901
snoise                                       0
xpg2.bs                               0.129781
xpg2.invo                             0.863901
xpg2.xe                               0.863901
v2#branch                                    0
v4#branch                          0.000118001
v3#branch                         -0.000118001



No. of Data Rows : 8498
responsetimea1      =  1.019898e-10
responsetimea2      =  1.810618e-10
responsetimea3      =  2.450931e-10
responsetimea4      =  3.255400e-10
responsetimeb1      =  8.028635e-11
responsetimeb2      =  1.062246e-10
responsetimeb3      =  1.652603e-10
responsetimeb4      =  2.508523e-10
iavg_start_to_response_a1=  -1.496084e-04 from=  0.000000e+00 to=  1.030000e-10
iavg_start_to_response_b1=  -1.239808e-04 from=  0.000000e+00 to=  8.100000e-11
iavg_from_response_a1_to_response_a4=  -2.609765e-04 from=  1.019898e-10 to=  3.269913e-10
iavg_from_response_b1_to_response_b4=  -2.686125e-04 from=  8.028635e-11 to=  2.516075e-10
iavg_from_response_a1_to_response_b1=  -2.488593e-04 from=  8.028635e-11 to=  1.030000e-10
Note: No ".plot", ".print", or ".fourier" lines; no simulations run
