
Circuit: *pulseloop

Doing analysis at TEMP = 27.000000 and TNOM = 27.000000


Initial Transient Solution
--------------------------

Node                                   Voltage
----                                   -------
pos_supply                                 1.8
xpg1.reset_loop                       0.863901
xpg1.critical_node                    0.863901
neg_supply                                   0
outa                                  0.863901
xpg1.invo                             0.863901
xpg1.xe                               0.863901
outb                                  0.863901
xpg2.reset_loop                       0.863901
xpg2.critical_node                    0.863901
snoise                                       0
xpg2.bs                               0.129781
xpg2.invo                             0.863901
xpg2.xe                               0.863901
v2#branch                                    0
v4#branch                          0.000118001
v3#branch                         -0.000118001



No. of Data Rows : 4058
responsetimea1      =  1.082194e-10
responsetimea2      =  2.017259e-10
responsetimea3      =  2.685205e-10
responsetimea4      =  3.500542e-10
responsetimeb1      =  7.318218e-11
responsetimeb2      =  1.300913e-10
responsetimeb3      =  1.859793e-10
responsetimeb4      =  2.716834e-10
iavg_start_to_response_a1=  -1.894927e-04 from=  0.000000e+00 to=  1.124785e-10
iavg_start_to_response_b1=  -1.414898e-04 from=  0.000000e+00 to=  8.000000e-11
iavg_from_response_a1_to_response_a4=  -2.597536e-04 from=  1.082194e-10 to=  3.501718e-10
iavg_from_response_b1_to_response_b4=  -2.743670e-04 from=  7.318218e-11 to=  2.800000e-10
iavg_from_response_a1_to_response_b1=  -3.041889e-04 from=  7.318218e-11 to=  1.124785e-10
Note: No ".plot", ".print", or ".fourier" lines; no simulations run
