
Circuit: *pulseloop

Doing analysis at TEMP = 27.000000 and TNOM = 27.000000


Initial Transient Solution
--------------------------

Node                                   Voltage
----                                   -------
pos_supply                                 1.8
xpg1.reset_loop                       0.863901
xpg1.critical_node                    0.863901
neg_supply                                   0
outa                                  0.863901
xpg1.invo                             0.863901
xpg1.xe                               0.863901
outb                                  0.863901
xpg2.reset_loop                       0.863901
xpg2.critical_node                    0.863901
snoise                                       0
xpg2.bs                               0.129781
xpg2.invo                             0.863901
xpg2.xe                               0.863901
v2#branch                                    0
v4#branch                          0.000118001
v3#branch                         -0.000118001



No. of Data Rows : 2062
responsetimea1      =  4.007261e-11
responsetimea2      =  7.582406e-11
responsetimea3      =  1.202522e-10
responsetimea4      =  2.136585e-10
responsetimeb1      =  6.357136e-11
responsetimeb2      =  1.413566e-10
responsetimeb3      =  1.998792e-10
responsetimeb4      =  2.830046e-10
iavg_start_to_response_a1=  -1.356036e-04 from=  0.000000e+00 to=  4.095307e-11
iavg_start_to_response_b1=  -1.695391e-04 from=  0.000000e+00 to=  6.700000e-11
iavg_from_response_a1_to_response_a4=  -2.821186e-04 from=  4.007261e-11 to=  2.153541e-10
iavg_from_response_b1_to_response_b4=  -2.878995e-04 from=  6.357136e-11 to=  2.870000e-10
iavg_from_response_a1_to_response_b1=  0.000000e+00 from=  6.357136e-11 to=  6.700000e-11
Note: No ".plot", ".print", or ".fourier" lines; no simulations run
