
Circuit: *pulseloop

Doing analysis at TEMP = 27.000000 and TNOM = 27.000000


Initial Transient Solution
--------------------------

Node                                   Voltage
----                                   -------
xpg1.1                                     1.8
xpg1.reset_loop                       0.863901
xpg1.critical_node                    0.863901
outa                                  0.863901
xpg1.invo                             0.863901
xpg1.xe                               0.863901
outb                                  0.863901
xpg2.1                                     1.8
xpg2.reset_loop                       0.863901
xpg2.critical_node                    0.863901
snoise                                       0
xpg2.bs                                0.88503
xpg2.invo                             0.863901
xpg2.xe                               0.863901
v2#branch                                    0
v.xpg2.v1#branch                  -5.90003e-05
v.xpg1.v1#branch                  -5.90003e-05



No. of Data Rows : 25231

  Measurements for Transient Analysis

responsetimea       =   1.14056e-10
responsetimea       =   1.72030e-10
responsetimea       =   2.63108e-10
responsetimea       =   3.24308e-10
responsetimeb       =   1.77777e-10
responsetimeb       =   2.41343e-10
responsetimeb       =   3.46292e-10
responsetimeb       =   4.03879e-10

Doing analysis at TEMP = 27.000000 and TNOM = 27.000000


  Measurements for Transient Analysis

responsetimea       =   1.14056e-10
responsetimea       =   1.72030e-10
responsetimea       =   2.63108e-10
responsetimea       =   3.24308e-10
responsetimeb       =   1.77777e-10
responsetimeb       =   2.41343e-10
responsetimeb       =   3.46292e-10
responsetimeb       =   4.03879e-10

CPU time since last call: 14.502 seconds.

Total CPU time: 14.502 seconds.

Total DRAM available = 128860.140625 MB.
DRAM currently available = 121692.957031 MB.
Total ngspice program size = 47.796875 MB.
Resident set size = 33.359375 MB.
Shared ngspice pages = 2.035156 MB.
Text (code) pages = 1.597656 MB.
Stack = 0 bytes.
Library pages = 31.416016 MB.

