
Circuit: *pulseloop

Doing analysis at TEMP = 27.000000 and TNOM = 27.000000


Initial Transient Solution
--------------------------

Node                                   Voltage
----                                   -------
pos_supply                                 1.8
xpg1.reset_loop                       0.863901
xpg1.critical_node                    0.863901
neg_supply                                   0
outa                                  0.863901
xpg1.invo                             0.863901
xpg1.xe                               0.863901
outb                                  0.863901
xpg2.reset_loop                       0.863901
xpg2.critical_node                    0.863901
snoise                                       0
xpg2.bs                               0.129781
xpg2.invo                             0.863901
xpg2.xe                               0.863901
v2#branch                                    0
v4#branch                          0.000118001
v3#branch                         -0.000118001



No. of Data Rows : 72124
responsetimea1      =  3.174329e-10
responsetimea2      =  3.781028e-10
responsetimea3      =  4.855958e-10
responsetimea4      =  5.477009e-10
responsetimeb1      =  2.407670e-10
responsetimeb2      =  2.776101e-10
responsetimeb3      =  4.000683e-10
responsetimeb4      =  4.573148e-10
tdiff = 2.302680e-10
iavg                =  -2.008301e-04 from=  3.174329e-10 to=  5.550000e-10
iavg = -2.00830e-04
Note: No ".plot", ".print", or ".fourier" lines; no simulations run
