
Circuit: *pulseloop

Doing analysis at TEMP = 27.000000 and TNOM = 27.000000


Initial Transient Solution
--------------------------

Node                                   Voltage
----                                   -------
pos_supply                                 1.8
xpg1.reset_loop                       0.863901
xpg1.critical_node                    0.863901
neg_supply                                   0
outa                                  0.863901
xpg1.invo                             0.863901
xpg1.xe                               0.863901
outb                                  0.863901
xpg2.reset_loop                       0.863901
xpg2.critical_node                    0.863901
snoise                                       0
xpg2.bs                               0.129781
xpg2.invo                             0.863901
xpg2.xe                               0.863901
v2#branch                                    0
v4#branch                          0.000118001
v3#branch                         -0.000118001



No. of Data Rows : 11948
responsetimea1      =  9.984994e-11
responsetimea2      =  1.254357e-10
responsetimea3      =  2.442138e-10
responsetimea4      =  3.058826e-10
responsetimeb1      =  1.625275e-10
responsetimeb2      =  2.208280e-10
responsetimeb3      =  3.276135e-10
responsetimeb4      =  3.847737e-10
tdiff = 2.060327e-10
iavg                =  -2.007766e-04 from=  9.984994e-11 to=  3.070000e-10
iavg = -2.00777e-04
Note: No ".plot", ".print", or ".fourier" lines; no simulations run
