
Circuit: *pulseloop

Doing analysis at TEMP = 27.000000 and TNOM = 27.000000


Initial Transient Solution
--------------------------

Node                                   Voltage
----                                   -------
pos_supply                                 1.8
xpg1.reset_loop                       0.863901
xpg1.critical_node                    0.863901
neg_supply                                   0
outa                                  0.863901
xpg1.invo                             0.863901
xpg1.xe                               0.863901
outb                                  0.863901
xpg2.reset_loop                       0.863901
xpg2.critical_node                    0.863901
snoise                                       0
xpg2.bs                               0.129781
xpg2.invo                             0.863901
xpg2.xe                               0.863901
v2#branch                                    0
v4#branch                          0.000118001
v3#branch                         -0.000118001



No. of Data Rows : 2775
responsetimea1      =  1.069086e-10
responsetimea2      =  2.050735e-10
responsetimea3      =  2.496753e-10
responsetimea4      =  3.486415e-10
responsetimeb1      =  6.738321e-11
responsetimeb2      =  1.323014e-10
responsetimeb3      =  1.851277e-10
responsetimeb4      =  2.745419e-10
tdiff = 2.417329e-10
iavg                =  -2.933682e-04 from=  1.069086e-10 to=  3.497800e-10
iavg = -2.93368e-04
Note: No ".plot", ".print", or ".fourier" lines; no simulations run
