
Circuit: *pulseloop

Doing analysis at TEMP = 27.000000 and TNOM = 27.000000


Initial Transient Solution
--------------------------

Node                                   Voltage
----                                   -------
pos_supply                                 1.8
xpg1.reset_loop                       0.863901
xpg1.critical_node                    0.863901
neg_supply                                   0
outa                                  0.863901
xpg1.invo                             0.863901
xpg1.xe                               0.863901
outb                                  0.863901
xpg2.reset_loop                       0.863901
xpg2.critical_node                    0.863901
snoise                                       0
xpg2.bs                               0.129781
xpg2.invo                             0.863901
xpg2.xe                               0.863901
v2#branch                                    0
v4#branch                          0.000118001
v3#branch                         -0.000118001



No. of Data Rows : 32100
responsetimea1      =  2.188001e-10
responsetimea2      =  2.790309e-10
responsetimea3      =  3.878279e-10
responsetimea4      =  4.490674e-10
responsetimeb1      =  1.450398e-10
responsetimeb2      =  1.924731e-10
responsetimeb3      =  3.019819e-10
responsetimeb4      =  3.593411e-10
iavg_start_to_response_a1=  -1.567056e-04 from=  0.000000e+00 to=  2.200000e-10
iavg_start_to_response_b1=  -1.299190e-04 from=  0.000000e+00 to=  1.470000e-10
iavg_from_response_a1_to_response_a4=  -2.000493e-04 from=  2.188001e-10 to=  4.550000e-10
iavg_from_response_b1_to_response_b4=  -2.011268e-04 from=  1.450398e-10 to=  3.600000e-10
iavg_from_response_a1_to_response_b1=  -2.098883e-04 from=  1.450398e-10 to=  2.200000e-10
Note: No ".plot", ".print", or ".fourier" lines; no simulations run
