
Circuit: *pulseloop

Doing analysis at TEMP = 27.000000 and TNOM = 27.000000


Initial Transient Solution
--------------------------

Node                                   Voltage
----                                   -------
pos_supply                                 1.8
xpg1.reset_loop                       0.863901
xpg1.critical_node                    0.863901
neg_supply                                   0
outa                                  0.863901
xpg1.invo                             0.863901
xpg1.xe                               0.863901
outb                                  0.863901
xpg2.reset_loop                       0.863901
xpg2.critical_node                    0.863901
snoise                                       0
xpg2.bs                               0.129781
xpg2.invo                             0.863901
xpg2.xe                               0.863901
v2#branch                                    0
v4#branch                          0.000118001
v3#branch                         -0.000118001



No. of Data Rows : 2367
responsetimea1      =  4.891709e-11
responsetimea2      =  1.058543e-10
responsetimea3      =  1.650547e-10
responsetimea4      =  2.513331e-10
responsetimeb1      =  8.193933e-11
responsetimeb2      =  1.751013e-10
responsetimeb3      =  2.460909e-10
responsetimeb4      =  3.207922e-10
iavg_start_to_response_a1=  -1.434502e-04 from=  0.000000e+00 to=  5.294730e-11
iavg_start_to_response_b1=  -2.005041e-04 from=  0.000000e+00 to=  8.300000e-11
iavg_from_response_a1_to_response_a4=  -2.694211e-04 from=  4.891709e-11 to=  2.550000e-10
iavg_from_response_b1_to_response_b4=  -2.524158e-04 from=  8.193933e-11 to=  3.210000e-10
iavg_from_response_a1_to_response_b1=  0.000000e+00 from=  8.193933e-11 to=  8.300000e-11
Note: No ".plot", ".print", or ".fourier" lines; no simulations run
