
Circuit: *pulseloop

Doing analysis at TEMP = 27.000000 and TNOM = 27.000000


Initial Transient Solution
--------------------------

Node                                   Voltage
----                                   -------
xpg1.1                                     1.8
xpg1.reset_loop                       0.863901
xpg1.critical_node                    0.863901
outa                                  0.863901
xpg1.invo                             0.863901
xpg1.xe                               0.863901
outb                                  0.863901
xpg2.1                                     1.8
xpg2.reset_loop                       0.863901
xpg2.critical_node                    0.863901
snoise                                       0
xpg2.bs                                0.88503
xpg2.invo                             0.863901
xpg2.xe                               0.863901
v2#branch                                    0
v.xpg2.v1#branch                  -5.90003e-05
v.xpg1.v1#branch                  -5.90003e-05



No. of Data Rows : 5985

  Measurements for Transient Analysis

responsetimea       =   3.41883e-11
responsetimea       =   5.97233e-11
responsetimea       =   1.39973e-10
responsetimea       =   1.98237e-10
responsetimeb       =   6.07783e-11
responsetimeb       =   1.29650e-10
responsetimeb       =   2.23554e-10
responsetimeb       =   2.80935e-10

Doing analysis at TEMP = 27.000000 and TNOM = 27.000000


  Measurements for Transient Analysis

responsetimea       =   3.41883e-11
responsetimea       =   5.97233e-11
responsetimea       =   1.39973e-10
responsetimea       =   1.98237e-10
responsetimeb       =   6.07783e-11
responsetimeb       =   1.29650e-10
responsetimeb       =   2.23554e-10
responsetimeb       =   2.80935e-10

CPU time since last call: 9.969 seconds.

Total CPU time: 9.969 seconds.

Total DRAM available = 128860.140625 MB.
DRAM currently available = 121643.632812 MB.
Total ngspice program size = 43.911133 MB.
Resident set size = 29.404297 MB.
Shared ngspice pages = 2.012695 MB.
Text (code) pages = 1.597656 MB.
Stack = 0 bytes.
Library pages = 27.530273 MB.

