
Circuit: *pulseloop

Doing analysis at TEMP = 27.000000 and TNOM = 27.000000


Initial Transient Solution
--------------------------

Node                                   Voltage
----                                   -------
pos_supply                                 1.8
xpg1.reset_loop                       0.863901
xpg1.critical_node                    0.863901
neg_supply                                   0
outa                                  0.863901
xpg1.invo                             0.863901
xpg1.xe                               0.863901
outb                                  0.863901
xpg2.reset_loop                       0.863901
xpg2.critical_node                    0.863901
snoise                                       0
xpg2.bs                               0.129781
xpg2.invo                             0.863901
xpg2.xe                               0.863901
v2#branch                                    0
v4#branch                          0.000118001
v3#branch                         -0.000118001



No. of Data Rows : 32097
responsetimea1      =  1.158918e-07
responsetimea2      =  1.159358e-07
responsetimea3      =  1.160507e-07
responsetimea4      =  1.161110e-07
responsetimeb1      =  1.159640e-07
responsetimeb2      =  1.160227e-07
responsetimeb3      =  1.161344e-07
responsetimeb4      =  1.161908e-07
tdiff = 2.192000e-10
iavg                =  -1.985239e-04 from=  1.158918e-07 to=  1.161150e-07
iavg = -1.98524e-04
Note: No ".plot", ".print", or ".fourier" lines; no simulations run
