
Circuit: *pulseloop

Doing analysis at TEMP = 27.000000 and TNOM = 27.000000


Initial Transient Solution
--------------------------

Node                                   Voltage
----                                   -------
pos_supply                                 1.8
xpg1.reset_loop                       0.863901
xpg1.critical_node                    0.863901
neg_supply                                   0
outa                                  0.863901
xpg1.invo                             0.863901
xpg1.xe                               0.863901
outb                                  0.863901
xpg2.reset_loop                       0.863901
xpg2.critical_node                    0.863901
snoise                                       0
xpg2.bs                               0.129781
xpg2.invo                             0.863901
xpg2.xe                               0.863901
v2#branch                                    0
v4#branch                          0.000118001
v3#branch                         -0.000118001



No. of Data Rows : 72124
responsetimea1      =  2.693090e-10
responsetimea2      =  3.302235e-10
responsetimea3      =  4.388955e-10
responsetimea4      =  5.002420e-10
responsetimeb1      =  1.913670e-10
responsetimeb2      =  2.376267e-10
responsetimeb3      =  3.533100e-10
responsetimeb4      =  4.096574e-10
iavg_start_to_response_a1=  -1.449213e-04 from=  0.000000e+00 to=  2.750000e-10
iavg_start_to_response_b1=  -1.225840e-04 from=  0.000000e+00 to=  1.950000e-10
iavg_from_response_a1_to_response_a4=  -2.014502e-04 from=  2.693090e-10 to=  5.010000e-10
iavg_from_response_b1_to_response_b4=  -1.983321e-04 from=  1.913670e-10 to=  4.148685e-10
iavg_from_response_a1_to_response_b1=  -1.983099e-04 from=  1.913670e-10 to=  2.750000e-10
Note: No ".plot", ".print", or ".fourier" lines; no simulations run
