
Circuit: *pulseloop

Doing analysis at TEMP = 27.000000 and TNOM = 27.000000


Initial Transient Solution
--------------------------

Node                                   Voltage
----                                   -------
pos_supply                                 1.8
xpg1.reset_loop                       0.863901
xpg1.critical_node                    0.863901
neg_supply                                   0
outa                                  0.863901
xpg1.invo                             0.863901
xpg1.xe                               0.863901
outb                                  0.863901
xpg2.reset_loop                       0.863901
xpg2.critical_node                    0.863901
snoise                                       0
xpg2.bs                               0.129781
xpg2.invo                             0.863901
xpg2.xe                               0.863901
v2#branch                                    0
v4#branch                          0.000118001
v3#branch                         -0.000118001



No. of Data Rows : 18278
responsetimea1      =  1.138979e-10
responsetimea2      =  2.029876e-10
responsetimea3      =  2.777085e-10
responsetimea4      =  3.444476e-10
responsetimeb1      =  6.647155e-11
responsetimeb2      =  1.300216e-10
responsetimeb3      =  1.938867e-10
responsetimeb4      =  2.725321e-10
iavg_start_to_response_a1=  -2.048510e-04 from=  0.000000e+00 to=  1.200000e-10
iavg_start_to_response_b1=  -1.477032e-04 from=  0.000000e+00 to=  6.700000e-11
iavg_from_response_a1_to_response_a4=  -2.395740e-04 from=  1.138979e-10 to=  3.469812e-10
iavg_from_response_b1_to_response_b4=  -2.590150e-04 from=  6.647155e-11 to=  2.750000e-10
iavg_from_response_a1_to_response_b1=  -2.802375e-04 from=  6.647155e-11 to=  1.200000e-10
Note: No ".plot", ".print", or ".fourier" lines; no simulations run
