
Circuit: *pulseloop

Doing analysis at TEMP = 27.000000 and TNOM = 27.000000


Initial Transient Solution
--------------------------

Node                                   Voltage
----                                   -------
pos_supply                                 1.8
xpg1.reset_loop                       0.863901
xpg1.critical_node                    0.863901
neg_supply                                   0
outa                                  0.863901
xpg1.invo                             0.863901
xpg1.xe                               0.863901
outb                                  0.863901
xpg2.reset_loop                       0.863901
xpg2.critical_node                    0.863901
snoise                                       0
xpg2.bs                               0.129781
xpg2.invo                             0.863901
xpg2.xe                               0.863901
v2#branch                                    0
v4#branch                          0.000118001
v3#branch                         -0.000118001



No. of Data Rows : 72124
responsetimea1      =  3.072684e-10
responsetimea2      =  3.688183e-10
responsetimea3      =  4.777417e-10
responsetimea4      =  5.382917e-10
responsetimeb1      =  2.324942e-10
responsetimeb2      =  2.596281e-10
responsetimeb3      =  3.917797e-10
responsetimeb4      =  4.479625e-10
iavg_start_to_response_a1=  -1.188551e-04 from=  0.000000e+00 to=  3.150000e-10
iavg_start_to_response_b1=  -9.804152e-05 from=  0.000000e+00 to=  2.350000e-10
iavg_from_response_a1_to_response_a4=  -2.004887e-04 from=  3.072684e-10 to=  5.400000e-10
iavg_from_response_b1_to_response_b4=  -1.911172e-04 from=  2.324942e-10 to=  4.550000e-10
iavg_from_response_a1_to_response_b1=  -1.772003e-04 from=  2.324942e-10 to=  3.150000e-10
Note: No ".plot", ".print", or ".fourier" lines; no simulations run
