
Circuit: *pulseloop

Doing analysis at TEMP = 27.000000 and TNOM = 27.000000


Initial Transient Solution
--------------------------

Node                                   Voltage
----                                   -------
pos_supply                                 1.8
xpg1.reset_loop                       0.863901
xpg1.critical_node                    0.863901
neg_supply                                   0
outa                                  0.863901
xpg1.invo                             0.863901
xpg1.xe                               0.863901
outb                                  0.863901
xpg2.reset_loop                       0.863901
xpg2.critical_node                    0.863901
snoise                                       0
xpg2.bs                               0.129781
xpg2.invo                             0.863901
xpg2.xe                               0.863901
v2#branch                                    0
v4#branch                          0.000118001
v3#branch                         -0.000118001



No. of Data Rows : 72124
responsetimea1      =  2.067602e-10
responsetimea2      =  2.688415e-10
responsetimea3      =  3.768047e-10
responsetimea4      =  4.369764e-10
responsetimeb1      =  1.393961e-10
responsetimeb2      =  1.771420e-10
responsetimeb3      =  2.909553e-10
responsetimeb4      =  3.471581e-10
tdiff = 2.302162e-10
iavg                =  -2.010291e-04 from=  2.067602e-10 to=  4.400000e-10
iavg = -2.01029e-04
Note: No ".plot", ".print", or ".fourier" lines; no simulations run
