
Circuit: *pulseloop

Doing analysis at TEMP = 27.000000 and TNOM = 27.000000


Initial Transient Solution
--------------------------

Node                                   Voltage
----                                   -------
pos_supply                                 1.8
xpg1.reset_loop                       0.863901
xpg1.critical_node                    0.863901
neg_supply                                   0
outa                                  0.863901
xpg1.invo                             0.863901
xpg1.xe                               0.863901
outb                                  0.863901
xpg2.reset_loop                       0.863901
xpg2.critical_node                    0.863901
snoise                                       0
xpg2.bs                               0.129781
xpg2.invo                             0.863901
xpg2.xe                               0.863901
v2#branch                                    0
v4#branch                          0.000118001
v3#branch                         -0.000118001



No. of Data Rows : 2033
responsetimea1      =  3.499135e-11
responsetimea2      =  8.112299e-11
responsetimea3      =  1.310778e-10
responsetimea4      =  2.217930e-10
responsetimeb1      =  6.058909e-11
responsetimeb2      =  1.484364e-10
responsetimeb3      =  2.105079e-10
responsetimeb4      =  2.913036e-10
tdiff = 1.868017e-10
iavg                =  -2.785402e-04 from=  3.499135e-11 to=  2.225638e-10
iavg = -2.78540e-04
Note: No ".plot", ".print", or ".fourier" lines; no simulations run
