
Circuit: *pulseloop

Doing analysis at TEMP = 27.000000 and TNOM = 27.000000


Initial Transient Solution
--------------------------

Node                                   Voltage
----                                   -------
pos_supply                                 1.8
xpg1.reset_loop                       0.863901
xpg1.critical_node                    0.863901
neg_supply                                   0
outa                                  0.863901
xpg1.invo                             0.863901
xpg1.xe                               0.863901
outb                                  0.863901
xpg2.reset_loop                       0.863901
xpg2.critical_node                    0.863901
snoise                                       0
xpg2.bs                               0.129781
xpg2.invo                             0.863901
xpg2.xe                               0.863901
v2#branch                                    0
v4#branch                          0.000118001
v3#branch                         -0.000118001



No. of Data Rows : 32098
responsetimea1      =  3.267685e-08
responsetimea2      =  3.271132e-08
responsetimea3      =  3.281592e-08
responsetimea4      =  3.287680e-08
responsetimeb1      =  3.273022e-08
responsetimeb2      =  3.278743e-08
responsetimeb3      =  3.289907e-08
responsetimeb4      =  3.295577e-08
iavg_start_to_response_a1=  -2.394893e-05 from=  0.000000e+00 to=  3.268000e-08
iavg_start_to_response_b1=  -2.430927e-05 from=  0.000000e+00 to=  3.273382e-08
iavg_from_response_a1_to_response_a4=  -2.098398e-04 from=  3.267685e-08 to=  3.288000e-08
iavg_from_response_b1_to_response_b4=  -1.994522e-04 from=  3.273022e-08 to=  3.296000e-08
iavg_from_response_a1_to_response_b1=  0.000000e+00 from=  3.273022e-08 to=  3.273382e-08
Note: No ".plot", ".print", or ".fourier" lines; no simulations run
