
Circuit: *pulseloop

Doing analysis at TEMP = 27.000000 and TNOM = 27.000000


Initial Transient Solution
--------------------------

Node                                   Voltage
----                                   -------
pos_supply                                 1.8
xpg1.reset_loop                       0.863901
xpg1.critical_node                    0.863901
neg_supply                                   0
outa                                  0.863901
xpg1.invo                             0.863901
xpg1.xe                               0.863901
outb                                  0.863901
xpg2.reset_loop                       0.863901
xpg2.critical_node                    0.863901
snoise                                       0
xpg2.bs                               0.129781
xpg2.invo                             0.863901
xpg2.xe                               0.863901
v2#branch                                    0
v4#branch                          0.000118001
v3#branch                         -0.000118001



No. of Data Rows : 4082
responsetimea1      =  9.245718e-11
responsetimea2      =  1.331361e-10
responsetimea3      =  2.256313e-10
responsetimea4      =  2.913696e-10
responsetimeb1      =  1.520318e-10
responsetimeb2      =  2.108482e-10
responsetimeb3      =  3.101226e-10
responsetimeb4      =  3.668433e-10
iavg_start_to_response_a1=  -1.223696e-04 from=  0.000000e+00 to=  9.410608e-11
iavg_start_to_response_b1=  -1.713685e-04 from=  0.000000e+00 to=  1.541493e-10
iavg_from_response_a1_to_response_a4=  -2.221396e-04 from=  9.245718e-11 to=  2.969266e-10
iavg_from_response_b1_to_response_b4=  -2.091863e-04 from=  1.520318e-10 to=  3.700573e-10
iavg_from_response_a1_to_response_b1=  0.000000e+00 from=  1.520318e-10 to=  1.541493e-10
Note: No ".plot", ".print", or ".fourier" lines; no simulations run
