
Circuit: *pulseloop

Doing analysis at TEMP = 27.000000 and TNOM = 27.000000


Initial Transient Solution
--------------------------

Node                                   Voltage
----                                   -------
xpg1.1                                     1.8
xpg1.reset_loop                       0.863901
xpg1.critical_node                    0.863901
outa                                  0.863901
xpg1.invo                             0.863901
xpg1.xe                               0.863901
outb                                  0.863901
xpg2.1                                     1.8
xpg2.reset_loop                       0.863901
xpg2.critical_node                    0.863901
snoise                                       0
xpg2.bs                                0.88503
xpg2.invo                             0.863901
xpg2.xe                               0.863901
v2#branch                                    0
v.xpg2.v1#branch                  -5.90003e-05
v.xpg1.v1#branch                  -5.90003e-05



No. of Data Rows : 25023

  Measurements for Transient Analysis

responsetimea       =   1.11794e-10
responsetimea       =   1.32236e-10
responsetimea       =   2.59504e-10
responsetimea       =   3.20335e-10
responsetimeb       =   1.78416e-10
responsetimeb       =   2.34537e-10
responsetimeb       =   3.42271e-10
responsetimeb       =   3.99972e-10

Doing analysis at TEMP = 27.000000 and TNOM = 27.000000


  Measurements for Transient Analysis

responsetimea       =   1.11794e-10
responsetimea       =   1.32236e-10
responsetimea       =   2.59504e-10
responsetimea       =   3.20335e-10
responsetimeb       =   1.78416e-10
responsetimeb       =   2.34537e-10
responsetimeb       =   3.42271e-10
responsetimeb       =   3.99972e-10

CPU time since last call: 14.384 seconds.

Total CPU time: 14.384 seconds.

Total DRAM available = 128860.140625 MB.
DRAM currently available = 121700.285156 MB.
Total ngspice program size = 47.743164 MB.
Resident set size = 33.311523 MB.
Shared ngspice pages = 2.052734 MB.
Text (code) pages = 1.597656 MB.
Stack = 0 bytes.
Library pages = 31.362305 MB.

