
Circuit: *pulseloop

Doing analysis at TEMP = 27.000000 and TNOM = 27.000000


Initial Transient Solution
--------------------------

Node                                   Voltage
----                                   -------
xpg1.1                                     1.8
xpg1.reset_loop                       0.863901
xpg1.critical_node                    0.863901
outa                                  0.863901
xpg1.invo                             0.863901
xpg1.xe                               0.863901
outb                                  0.863901
xpg2.1                                     1.8
xpg2.reset_loop                       0.863901
xpg2.critical_node                    0.863901
snoise                                       0
xpg2.bs                                0.88503
xpg2.invo                             0.863901
xpg2.xe                               0.863901
v2#branch                                    0
v.xpg2.v1#branch                  -5.90003e-05
v.xpg1.v1#branch                  -5.90003e-05



No. of Data Rows : 25247

  Measurements for Transient Analysis

responsetimea       =   1.00332e-10
responsetimea       =   1.22415e-10
responsetimea       =   2.44449e-10
responsetimea       =   3.03931e-10
responsetimeb       =   1.63704e-10
responsetimeb       =   2.21934e-10
responsetimeb       =   3.28207e-10
responsetimeb       =   3.85086e-10

Doing analysis at TEMP = 27.000000 and TNOM = 27.000000


  Measurements for Transient Analysis

responsetimea       =   1.00332e-10
responsetimea       =   1.22415e-10
responsetimea       =   2.44449e-10
responsetimea       =   3.03931e-10
responsetimeb       =   1.63704e-10
responsetimeb       =   2.21934e-10
responsetimeb       =   3.28207e-10
responsetimeb       =   3.85086e-10

CPU time since last call: 14.717 seconds.

Total CPU time: 14.717 seconds.

Total DRAM available = 128860.140625 MB.
DRAM currently available = 121697.078125 MB.
Total ngspice program size = 47.796875 MB.
Resident set size = 33.350586 MB.
Shared ngspice pages = 2.027344 MB.
Text (code) pages = 1.597656 MB.
Stack = 0 bytes.
Library pages = 31.416016 MB.

