
Circuit: *pulseloop

Doing analysis at TEMP = 27.000000 and TNOM = 27.000000


Initial Transient Solution
--------------------------

Node                                   Voltage
----                                   -------
pos_supply                                 1.8
xpg1.reset_loop                       0.863901
xpg1.critical_node                    0.863901
neg_supply                                   0
outa                                  0.863901
xpg1.invo                             0.863901
xpg1.xe                               0.863901
outb                                  0.863901
xpg2.reset_loop                       0.863901
xpg2.critical_node                    0.863901
snoise                                       0
xpg2.bs                               0.129781
xpg2.invo                             0.863901
xpg2.xe                               0.863901
v2#branch                                    0
v4#branch                          0.000118001
v3#branch                         -0.000118001



No. of Data Rows : 4042
responsetimea1      =  7.102554e-11
responsetimea2      =  9.205611e-11
responsetimea3      =  1.663186e-10
responsetimea4      =  2.692383e-10
responsetimeb1      =  1.013906e-10
responsetimeb2      =  1.661667e-10
responsetimeb3      =  2.492265e-10
responsetimeb4      =  3.406137e-10
tdiff = 1.982128e-10
iavg                =  -1.828554e-04 from=  7.102554e-11 to=  2.750000e-10
iavg = -1.82855e-04
Note: No ".plot", ".print", or ".fourier" lines; no simulations run
