
Circuit: *pulseloop

Doing analysis at TEMP = 27.000000 and TNOM = 27.000000


Initial Transient Solution
--------------------------

Node                                   Voltage
----                                   -------
pos_supply                                 1.8
xpg1.reset_loop                       0.863901
xpg1.critical_node                    0.863901
neg_supply                                   0
outa                                  0.863901
xpg1.invo                             0.863901
xpg1.xe                               0.863901
outb                                  0.863901
xpg2.reset_loop                       0.863901
xpg2.critical_node                    0.863901
snoise                                       0
xpg2.bs                               0.129781
xpg2.invo                             0.863901
xpg2.xe                               0.863901
v2#branch                                    0
v4#branch                          0.000118001
v3#branch                         -0.000118001



No. of Data Rows : 18257
responsetimea1      =  3.731481e-10
responsetimea2      =  4.293727e-10
responsetimea3      =  5.407102e-10
responsetimea4      =  6.012583e-10
responsetimeb1      =  2.955197e-10
responsetimeb2      =  3.132053e-10
responsetimeb3      =  4.559681e-10
responsetimeb4      =  5.125697e-10
iavg_start_to_response_a1=  -1.028790e-04 from=  0.000000e+00 to=  3.750000e-10
iavg_start_to_response_b1=  -8.982176e-05 from=  0.000000e+00 to=  3.000000e-10
iavg_from_response_a1_to_response_a4=  -2.003424e-04 from=  3.731481e-10 to=  6.030000e-10
iavg_from_response_b1_to_response_b4=  -1.817539e-04 from=  2.955197e-10 to=  5.145588e-10
iavg_from_response_a1_to_response_b1=  -1.514644e-04 from=  2.955197e-10 to=  3.750000e-10
Note: No ".plot", ".print", or ".fourier" lines; no simulations run
