
Circuit: *pulseloop

Doing analysis at TEMP = 27.000000 and TNOM = 27.000000


Initial Transient Solution
--------------------------

Node                                   Voltage
----                                   -------
pos_supply                                 1.8
xpg1.reset_loop                       0.863901
xpg1.critical_node                    0.863901
neg_supply                                   0
outa                                  0.863901
xpg1.invo                             0.863901
xpg1.xe                               0.863901
outb                                  0.863901
xpg2.reset_loop                       0.863901
xpg2.critical_node                    0.863901
snoise                                       0
xpg2.bs                               0.129781
xpg2.invo                             0.863901
xpg2.xe                               0.863901
v2#branch                                    0
v4#branch                          0.000118001
v3#branch                         -0.000118001



No. of Data Rows : 18311
responsetimea1      =  2.993775e-10
responsetimea2      =  3.632846e-10
responsetimea3      =  4.678920e-10
responsetimea4      =  5.294535e-10
responsetimeb1      =  2.214079e-10
responsetimeb2      =  2.623067e-10
responsetimeb3      =  3.820071e-10
responsetimeb4      =  4.395983e-10
iavg_start_to_response_a1=  -1.318608e-04 from=  0.000000e+00 to=  3.000000e-10
iavg_start_to_response_b1=  -1.119950e-04 from=  0.000000e+00 to=  2.230000e-10
iavg_from_response_a1_to_response_a4=  -1.093311e-04 from=  2.993775e-10 to=  5.346722e-10
iavg_from_response_b1_to_response_b4=  -9.808051e-05 from=  2.214079e-10 to=  4.400000e-10
iavg_from_response_a1_to_response_b1=  -1.927030e-04 from=  2.214079e-10 to=  3.000000e-10
Note: No ".plot", ".print", or ".fourier" lines; no simulations run
