
Circuit: *pulseloop

Doing analysis at TEMP = 27.000000 and TNOM = 27.000000


Initial Transient Solution
--------------------------

Node                                   Voltage
----                                   -------
pos_supply                                 1.8
xpg1.reset_loop                       0.863901
xpg1.critical_node                    0.863901
neg_supply                                   0
outa                                  0.863901
xpg1.invo                             0.863901
xpg1.xe                               0.863901
outb                                  0.863901
xpg2.reset_loop                       0.863901
xpg2.critical_node                    0.863901
snoise                                       0
xpg2.bs                               0.129781
xpg2.invo                             0.863901
xpg2.xe                               0.863901
v2#branch                                    0
v4#branch                          0.000118001
v3#branch                         -0.000118001



No. of Data Rows : 32092
responsetimea1      =  2.663728e-08
responsetimea2      =  2.666110e-08
responsetimea3      =  2.679044e-08
responsetimea4      =  2.685010e-08
responsetimeb1      =  2.670428e-08
responsetimeb2      =  2.676269e-08
responsetimeb3      =  2.687420e-08
responsetimeb4      =  2.693090e-08
tdiff = 2.128200e-10
iavg                =  -1.930792e-04 from=  2.663728e-08 to=  2.685500e-08
iavg = -1.93079e-04
Note: No ".plot", ".print", or ".fourier" lines; no simulations run
