
Circuit: *pulseloop

Doing analysis at TEMP = 27.000000 and TNOM = 27.000000


Initial Transient Solution
--------------------------

Node                                   Voltage
----                                   -------
pos_supply                                 1.8
xpg1.reset_loop                       0.863901
xpg1.critical_node                    0.863901
neg_supply                                   0
outa                                  0.863901
xpg1.invo                             0.863901
xpg1.xe                               0.863901
outb                                  0.863901
xpg2.reset_loop                       0.863901
xpg2.critical_node                    0.863901
snoise                                       0
xpg2.bs                               0.129781
xpg2.invo                             0.863901
xpg2.xe                               0.863901
v2#branch                                    0
v4#branch                          0.000118001
v3#branch                         -0.000118001



No. of Data Rows : 4019
responsetimea1      =  9.079674e-11
responsetimea2      =  1.332282e-10
responsetimea3      =  1.862969e-10
responsetimea4      =  2.823538e-10
responsetimeb1      =  1.493496e-10
responsetimeb2      =  2.084711e-10
responsetimeb3      =  2.653757e-10
responsetimeb4      =  3.524629e-10
tdiff = 1.915571e-10
iavg                =  -2.882665e-04 from=  9.079674e-11 to=  2.830000e-10
iavg = -2.88266e-04
Note: No ".plot", ".print", or ".fourier" lines; no simulations run
