
Circuit: *pulseloop

Doing analysis at TEMP = 27.000000 and TNOM = 27.000000


Initial Transient Solution
--------------------------

Node                                   Voltage
----                                   -------
xpg1.1                                     1.8
xpg1.reset_loop                       0.863901
xpg1.critical_node                    0.863901
outa                                  0.863901
xpg1.invo                             0.863901
xpg1.xe                               0.863901
outb                                  0.863901
xpg2.1                                     1.8
xpg2.reset_loop                       0.863901
xpg2.critical_node                    0.863901
snoise                                       0
xpg2.bs                                0.88503
xpg2.invo                             0.863901
xpg2.xe                               0.863901
v2#branch                                    0
v.xpg2.v1#branch                  -5.90003e-05
v.xpg1.v1#branch                  -5.90003e-05



No. of Data Rows : 25005

  Measurements for Transient Analysis

responsetimea       =   3.22695e-10
responsetimea       =   3.83566e-10
responsetimea       =   4.92490e-10
responsetimea       =   5.52537e-10
responsetimeb       =   2.46598e-10
responsetimeb       =   2.78959e-10
responsetimeb       =   4.05628e-10
responsetimeb       =   4.63407e-10

Doing analysis at TEMP = 27.000000 and TNOM = 27.000000


  Measurements for Transient Analysis

responsetimea       =   3.22695e-10
responsetimea       =   3.83566e-10
responsetimea       =   4.92490e-10
responsetimea       =   5.52537e-10
responsetimeb       =   2.46598e-10
responsetimeb       =   2.78959e-10
responsetimeb       =   4.05628e-10
responsetimeb       =   4.63407e-10

CPU time since last call: 14.531 seconds.

Total CPU time: 14.531 seconds.

Total DRAM available = 128860.140625 MB.
DRAM currently available = 121699.519531 MB.
Total ngspice program size = 47.653320 MB.
Resident set size = 33.164062 MB.
Shared ngspice pages = 2.032227 MB.
Text (code) pages = 1.597656 MB.
Stack = 0 bytes.
Library pages = 31.272461 MB.

