
Circuit: *pulseloop

Doing analysis at TEMP = 27.000000 and TNOM = 27.000000

Note: Starting dynamic gmin stepping
Trying gmin =   1.0000E-03 Note: One successful gmin step
Trying gmin =   1.0000E-04 Note: One successful gmin step
Trying gmin =   1.0000E-05 Warning: Further gmin increment
Trying gmin =   5.6234E-05 Note: One successful gmin step
Trying gmin =   2.3714E-05 Note: One successful gmin step
Trying gmin =   6.4938E-06 Note: One successful gmin step
Trying gmin =   9.3057E-07 Note: One successful gmin step
Trying gmin =   9.3057E-08 Note: One successful gmin step
Trying gmin =   9.3057E-09 Note: One successful gmin step
Trying gmin =   9.3057E-10 Note: One successful gmin step
Trying gmin =   9.3057E-11 Note: One successful gmin step
Trying gmin =   9.3057E-12 Note: One successful gmin step
Trying gmin =   1.0000E-12 Note: One successful gmin step
Note: Dynamic gmin stepping completed

Initial Transient Solution
--------------------------

Node                                   Voltage
----                                   -------
xpg1.1                                     1.8
xpg1.reset_loop                            1.8
xpg1.critical_node                     1.74017
snoise                                       0
outb                               9.68599e-07
xpg1.invo                          2.45993e-06
xpg1.xe                                    1.8
outa                               9.68599e-07
xpg2.1                                     1.8
xpg2.reset_loop                            1.8
xpg2.critical_node                     1.74017
xpg2.invo                          2.45993e-06
xpg2.xe                                    1.8
xpg3.1                                     1.8
xpg3.reset_loop                            1.8
xpg3.critical_node                     1.74017
npoutb                             9.68599e-07
xpg3.invo                          2.45993e-06
xpg3.xe                                    1.8
npouta                             9.68599e-07
xpg4.1                                     1.8
xpg4.reset_loop                            1.8
xpg4.critical_node                         1.8
xpg4.invo                          9.68599e-07
xpg4.xe                                    1.8
v2#branch                                    0
v.xpg4.v1#branch                  -1.01106e-09
v.xpg3.v1#branch                  -1.74993e-09
v.xpg2.v1#branch                  -1.74993e-09
v.xpg1.v1#branch                  -1.74993e-09

doAnalyses: TRAN:  Timestep too small; time = 2.456e-08, timestep = 1.25e-23: trouble with node "xpg3.reset_loop"


tran simulation(s) aborted
Doing analysis at TEMP = 27.000000 and TNOM = 27.000000


  Measurements for Transient Analysis

responsetimea       =   1.30465e-10
responsetimea       =   1.94625e-10
responsetimea       =   3.24945e-10
responsetimea       =   3.82913e-10
responsetimeb       =   2.13265e-10
responsetimeb       =   2.71311e-10
responsetimeb       =   4.07994e-10
responsetimeb       =   4.61032e-10
npresponsetimea     =   1.30494e-10
npresponsetimea     =   1.94387e-10
npresponsetimea     =   3.17113e-10
npresponsetimea     =   3.73717e-10
npresponsetimeb     =   4.21289e-10
npresponsetimeb     =   4.69303e-10
npresponsetimeb     =   1.13504e-09
npresponsetimeb     =   1.16490e-09

CPU time since last call: 14.467 seconds.

Total CPU time: 14.467 seconds.

Total DRAM available = 128860.136719 MB.
DRAM currently available = 110633.535156 MB.
Total ngspice program size = 66.051758 MB.
Resident set size = 51.653320 MB.
Shared ngspice pages = 2.088867 MB.
Text (code) pages = 1.597656 MB.
Stack = 0 bytes.
Library pages = 49.670898 MB.

