
Circuit: *pulseloop

Doing analysis at TEMP = 27.000000 and TNOM = 27.000000

Warning: v3: no DC value, transient time 0 value used

Initial Transient Solution
--------------------------

Node                                   Voltage
----                                   -------
pos_supply                                   0
xpg1.reset_loop                   -8.12365e-17
xpg1.critical_node                -8.80841e-17
neg_supply                                   0
snoise                                       0
outb                              -8.03416e-17
xpg1.invo                         -9.97178e-17
xpg1.xe                           -8.12365e-17
outa                              -8.20934e-17
xpg2.reset_loop                   -7.77454e-17
xpg2.critical_node                -8.26566e-17
xpg2.invo                         -9.75528e-17
xpg2.xe                           -7.77454e-17
xpg3.reset_loop                    4.42443e-15
xpg3.critical_node                 1.71154e-15
npoutb                             1.04917e-18
xpg3.invo                          4.44647e-15
xpg3.xe                            4.42443e-15
npouta                             2.18895e-15
xpg4.reset_loop                      1.586e-19
xpg4.critical_node                 2.86647e-18
xpg4.invo                         -4.27022e-20
xpg4.xe                              1.586e-19
xpg5.reset_loop                    5.35403e-14
xpg5.critical_node                 3.93795e-15
upb                                 9.4555e-14
xpg5.invo                         -2.60077e-14
xpg5.xe                            5.35403e-14
upa                                9.64704e-14
xpg6.reset_loop                    5.25477e-14
xpg6.critical_node                 4.57034e-15
xpg6.invo                         -2.53868e-14
xpg6.xe                            5.25445e-14
v2#branch                                    0
v4#branch                          7.88613e-25
v3#branch                         -7.88613e-25



No. of Data Rows : 7115
responsetimea1      =  1.056401e-08
responsetimea2      =  1.060711e-08
responsetimea3      =  1.116811e-08
responsetimea4      =  1.120219e-08
responsetimeb1      =  8.947436e-09
responsetimeb2      =  8.967446e-09
responsetimeb3      =  9.887520e-09
responsetimeb4      =  9.930009e-09
npresponsetimea1    =  1.015933e-08
npresponsetimea2    =  1.019172e-08
npresponsetimea3    =  1.091055e-08
npresponsetimea4    =  1.094476e-08
npresponsetimeb1    =  1.489400e-08
npresponsetimeb2    =  1.492128e-08

Error: measure  npresponsetimeb3  (WHEN) : out of interval
 meas tran npresponsetimeb3 when v(npoutb)=1.2 cross=3 failed!


Error: measure  npresponsetimeb4  (WHEN) : out of interval
 meas tran npresponsetimeb4 when v(npoutb)=1.2 cross=4 failed!

responsetimeupa1    =  1.109357e-08
responsetimeupa2    =  1.114921e-08
responsetimeupa3    =  1.154502e-08
responsetimeupa4    =  1.160514e-08
responsetimeupb1    =  9.339301e-09
responsetimeupb2    =  9.373293e-09
responsetimeupb3    =  1.025680e-08
responsetimeupb4    =  1.030657e-08
tdiff = 6.381800e-10
iavg                =  -1.459207e-04 from=  1.056401e-08 to=  1.120267e-08
iavg = -1.45921e-04
tdiffb = 9.825730e-10
iavgb               =  -4.313875e-05 from=  8.947436e-09 to=  9.930139e-09
iavgb = -4.31387e-05
Note: No ".plot", ".print", or ".fourier" lines; no simulations run
