
Circuit: *pulseloop

Doing analysis at TEMP = 27.000000 and TNOM = 27.000000


Initial Transient Solution
--------------------------

Node                                   Voltage
----                                   -------
xpg.1                                      1.8
xpg.reset_loop                             1.8
xpg.critical_node                          1.8
snoise                                       0
xpg.invo                           9.68599e-07
xpg.xe                                     1.8
out                                9.68599e-07
v2#branch                                    0
v.xpg.v1#branch                   -1.01106e-09

doAnalyses: TRAN:  Timestep too small; time = 2.86e-09, timestep = 1.25e-23: cause unrecorded.


tran simulation(s) aborted
Doing analysis at TEMP = 27.000000 and TNOM = 27.000000


  Measurements for Transient Analysis


Error: measure  responsetime  (WHEN) : out of interval
 .measure tran responsetime when v(out)=1.2 cross=1 failed!


CPU time since last call: 8.440 seconds.

Total CPU time: 8.440 seconds.

Total DRAM available = 128860.191406 MB.
DRAM currently available = 57959.195312 MB.
Total ngspice program size = 32.096680 MB.
Resident set size = 17.620117 MB.
Shared ngspice pages = 1.971680 MB.
Text (code) pages = 1.597656 MB.
Stack = 0 bytes.
Library pages = 15.715820 MB.

