
Circuit: *pulseloop

Doing analysis at TEMP = 27.000000 and TNOM = 27.000000


Initial Transient Solution
--------------------------

Node                                   Voltage
----                                   -------
pos_supply                                 1.8
xpg1.reset_loop                            1.8
xpg1.critical_node                     1.73839
neg_supply                                   0
snoise                                       0
outb                               9.68599e-07
xpg1.invo                          2.52675e-06
xpg1.xe                                    1.8
outa                               9.68599e-07
xpg2.reset_loop                            1.8
xpg2.critical_node                         1.8
xpg2.bc                                    1.8
xpg2.invo                          9.68599e-07
xpg2.xe                                    1.8
v2#branch                                    0
v4#branch                          2.79167e-09
v3#branch                         -2.79167e-09

doAnalyses: TRAN:  Timestep too small; time = 1.574e-08, timestep = 1.25e-23: cause unrecorded.


tran simulation(s) aborted
responsetimea1      =  1.595965e-10
responsetimea2      =  2.258702e-10
responsetimea3      =  9.780435e-10
responsetimea4      =  1.011754e-09
responsetimeb1      =  3.929245e-09
responsetimeb2      =  3.975668e-09
responsetimeb3      =  7.847083e-09
responsetimeb4      =  7.892047e-09
iavg_start_to_response_a1=  -4.663361e-05 from=  0.000000e+00 to=  1.600000e-10
iavg_start_to_response_b1=  -7.054219e-05 from=  0.000000e+00 to=  3.934500e-09
iavg_from_response_a1_to_response_a4=  -6.123127e-05 from=  1.595965e-10 to=  1.016143e-09
iavg_from_response_b1_to_response_b4=  -8.359652e-05 from=  3.929245e-09 to=  7.896193e-09
iavg_from_response_a1_to_response_b1=  0.000000e+00 from=  3.929245e-09 to=  3.934500e-09
Note: No ".plot", ".print", or ".fourier" lines; no simulations run
