
Circuit: *pulseloop

Doing analysis at TEMP = 27.000000 and TNOM = 27.000000


Initial Transient Solution
--------------------------

Node                                   Voltage
----                                   -------
xpg1.1                                     1.8
xpg1.reset_loop                            1.8
xpg1.critical_node                     1.74017
snoise                                       0
outb                               9.68599e-07
xpg1.invo                          2.45983e-06
xpg1.xe                                    1.8
outa                               9.68599e-07
xpg2.1                                     1.8
xpg2.reset_loop                            1.8
xpg2.critical_node                         1.8
xpg2.bc                                    1.8
xpg2.invo                          9.68599e-07
xpg2.xe                                    1.8
v2#branch                                    0
v.xpg2.v1#branch                  -1.01106e-09
v.xpg1.v1#branch                  -1.74993e-09



No. of Data Rows : 29415

  Measurements for Transient Analysis

responsetimea       =   4.09043e-10
responsetimea       =   4.46365e-10
responsetimea       =   1.52455e-09
responsetimea       =   1.57874e-09
responsetimeb       =   6.00139e-08
responsetimeb       =   6.00408e-08
responsetimeb       =   7.95237e-08
responsetimeb       =   7.95591e-08

Doing analysis at TEMP = 27.000000 and TNOM = 27.000000


  Measurements for Transient Analysis

responsetimea       =   4.09043e-10
responsetimea       =   4.46365e-10
responsetimea       =   1.52455e-09
responsetimea       =   1.57874e-09
responsetimeb       =   6.00139e-08
responsetimeb       =   6.00408e-08
responsetimeb       =   7.95237e-08
responsetimeb       =   7.95591e-08

CPU time since last call: 16.921 seconds.

Total CPU time: 16.921 seconds.

Total DRAM available = 128860.140625 MB.
DRAM currently available = 121636.605469 MB.
Total ngspice program size = 49.276367 MB.
Resident set size = 34.780273 MB.
Shared ngspice pages = 2.037109 MB.
Text (code) pages = 1.597656 MB.
Stack = 0 bytes.
Library pages = 32.895508 MB.

