
Circuit: *pulseloop

Doing analysis at TEMP = 27.000000 and TNOM = 27.000000


Initial Transient Solution
--------------------------

Node                                   Voltage
----                                   -------
pos_supply                                 1.8
xpg1.reset_loop                            1.8
xpg1.critical_node                     1.73839
neg_supply                                   0
snoise                                       0
outb                               9.68599e-07
xpg1.invo                          2.52675e-06
xpg1.xe                                    1.8
outa                               9.68599e-07
xpg2.reset_loop                            1.8
xpg2.critical_node                         1.8
xpg2.bc                                    1.8
xpg2.invo                          9.68599e-07
xpg2.xe                                    1.8
v2#branch                                    0
v4#branch                          2.79167e-09
v3#branch                         -2.79167e-09

doAnalyses: TRAN:  Timestep too small; time = 2.42e-09, timestep = 1.25e-23: cause unrecorded.


tran simulation(s) aborted
responsetimea1      =  6.989191e-11
responsetimea2      =  1.495115e-10
responsetimea3      =  3.986926e-10
responsetimea4      =  4.545650e-10
responsetimeb1      =  1.817342e-09
responsetimeb2      =  2.040901e-09
responsetimeb3      =  2.123676e-09
responsetimeb4      =  2.170269e-09
iavg_start_to_response_a1=  -8.720239e-05 from=  0.000000e+00 to=  7.323127e-11
iavg_start_to_response_b1=  -1.417721e-04 from=  0.000000e+00 to=  1.820000e-09
iavg_from_response_a1_to_response_a4=  -1.257265e-04 from=  6.989191e-11 to=  4.600000e-10
iavg_from_response_b1_to_response_b4=  -3.495357e-04 from=  1.817342e-09 to=  2.173018e-09
iavg_from_response_a1_to_response_b1=  0.000000e+00 from=  1.817342e-09 to=  1.820000e-09
Note: No ".plot", ".print", or ".fourier" lines; no simulations run
