
Circuit: *pulseloop

Doing analysis at TEMP = 27.000000 and TNOM = 27.000000


Initial Transient Solution
--------------------------

Node                                   Voltage
----                                   -------
pos_supply                                 1.8
xpg1.reset_loop                            1.8
xpg1.critical_node                     1.73839
neg_supply                                   0
snoise                                       0
outb                               9.68599e-07
xpg1.invo                          2.52675e-06
xpg1.xe                                    1.8
outa                               9.68599e-07
xpg2.reset_loop                            1.8
xpg2.critical_node                         1.8
xpg2.bc                                    1.8
xpg2.invo                          9.68599e-07
xpg2.xe                                    1.8
v2#branch                                    0
v4#branch                          2.79167e-09
v3#branch                         -2.79167e-09

doAnalyses: TRAN:  Timestep too small; time = 4.78e-09, timestep = 1.25e-23: cause unrecorded.


tran simulation(s) aborted
responsetimea1      =  8.084810e-11
responsetimea2      =  1.431545e-10
responsetimea3      =  5.475807e-10
responsetimea4      =  6.060433e-10
responsetimeb1      =  1.123574e-09
responsetimeb2      =  1.170262e-09
responsetimeb3      =  1.678663e-09
responsetimeb4      =  1.743199e-09
tdiff = 5.251952e-10
iavg                =  -7.850371e-05 from=  8.084810e-11 to=  6.066932e-10
iavg = -7.85037e-05
Note: No ".plot", ".print", or ".fourier" lines; no simulations run
