
Circuit: *pulseloop

Doing analysis at TEMP = 27.000000 and TNOM = 27.000000


Initial Transient Solution
--------------------------

Node                                   Voltage
----                                   -------
pos_supply                                 1.8
xpg1.reset_loop                            1.8
xpg1.critical_node                     1.73839
neg_supply                                   0
snoise                                       0
outb                               9.68599e-07
xpg1.invo                          2.52675e-06
xpg1.xe                                    1.8
outa                               9.68599e-07
xpg2.reset_loop                            1.8
xpg2.critical_node                         1.8
xpg2.bc                                    1.8
xpg2.invo                          9.68599e-07
xpg2.xe                                    1.8
v2#branch                                    0
v4#branch                          2.79167e-09
v3#branch                         -2.79167e-09

doAnalyses: TRAN:  Timestep too small; time = 2.2e-09, timestep = 1.25e-23: cause unrecorded.


tran simulation(s) aborted
responsetimea1      =  2.517024e-10
responsetimea2      =  3.205824e-10
responsetimea3      =  3.887646e-10
responsetimea4      =  6.020729e-10
responsetimeb1      =  6.583589e-10
responsetimeb2      =  6.997051e-10
responsetimeb3      =  7.594872e-10
responsetimeb4      =  8.213271e-10
iavg_start_to_response_a1=  -1.467557e-05 from=  0.000000e+00 to=  2.568245e-10
iavg_start_to_response_b1=  -2.836777e-04 from=  0.000000e+00 to=  6.590956e-10
iavg_from_response_a1_to_response_a4=  -4.593810e-04 from=  2.517024e-10 to=  6.027345e-10
iavg_from_response_b1_to_response_b4=  -4.592354e-04 from=  6.583589e-10 to=  8.229044e-10
iavg_from_response_a1_to_response_b1=  0.000000e+00 from=  6.583589e-10 to=  6.590956e-10
Note: No ".plot", ".print", or ".fourier" lines; no simulations run
