
Circuit: *pulseloop

Doing analysis at TEMP = 27.000000 and TNOM = 27.000000


Initial Transient Solution
--------------------------

Node                                   Voltage
----                                   -------
pos_supply                                 1.8
xpg1.reset_loop                            1.8
xpg1.critical_node                     1.73839
neg_supply                                   0
snoise                                       0
outb                               9.68599e-07
xpg1.invo                          2.52675e-06
xpg1.xe                                    1.8
outa                               9.68599e-07
xpg2.reset_loop                            1.8
xpg2.critical_node                         1.8
xpg2.bc                                    1.8
xpg2.invo                          9.68599e-07
xpg2.xe                                    1.8
v2#branch                                    0
v4#branch                          2.79167e-09
v3#branch                         -2.79167e-09



No. of Data Rows : 5594
responsetimea1      =  4.910684e-10
responsetimea2      =  5.493134e-10
responsetimea3      =  9.732172e-10
responsetimea4      =  1.022825e-09
responsetimeb1      =  1.562178e-09
responsetimeb2      =  1.602977e-09
responsetimeb3      =  1.417199e-08
responsetimeb4      =  1.420278e-08
tdiff = 5.317566e-10
iavg                =  -8.926381e-05 from=  4.910684e-10 to=  1.023000e-09
iavg = -8.92638e-05
Note: No ".plot", ".print", or ".fourier" lines; no simulations run
