
Circuit: *pulseloop

Doing analysis at TEMP = 27.000000 and TNOM = 27.000000


Initial Transient Solution
--------------------------

Node                                   Voltage
----                                   -------
pos_supply                                 1.8
xpg1.reset_loop                            1.8
xpg1.critical_node                     1.73839
neg_supply                                   0
snoise                                       0
outb                               9.68599e-07
xpg1.invo                          2.52675e-06
xpg1.xe                                    1.8
outa                               9.68599e-07
xpg2.reset_loop                            1.8
xpg2.critical_node                         1.8
xpg2.bc                                    1.8
xpg2.invo                          9.68599e-07
xpg2.xe                                    1.8
v2#branch                                    0
v4#branch                          2.79167e-09
v3#branch                         -2.79167e-09

doAnalyses: TRAN:  Timestep too small; time = 4.6e-10, timestep = 1.25e-23: cause unrecorded.


tran simulation(s) aborted
responsetimea1      =  9.329184e-11
responsetimea2      =  1.540106e-10
responsetimea3      =  2.277653e-10
responsetimea4      =  3.472404e-10
responsetimeb1      =  2.067012e-10
responsetimeb2      =  2.591996e-10
responsetimeb3      =  3.569701e-10
responsetimeb4      =  3.713995e-10
iavg_start_to_response_a1=  -1.695793e-04 from=  0.000000e+00 to=  1.000000e-10
iavg_start_to_response_b1=  -2.619053e-04 from=  0.000000e+00 to=  2.094376e-10
iavg_from_response_a1_to_response_a4=  -3.440949e-04 from=  9.329184e-11 to=  3.540569e-10
iavg_from_response_b1_to_response_b4=  -3.200359e-04 from=  2.067012e-10 to=  3.736569e-10
iavg_from_response_a1_to_response_b1=  0.000000e+00 from=  2.067012e-10 to=  2.094376e-10
Note: No ".plot", ".print", or ".fourier" lines; no simulations run
