
Circuit: *pulseloop

Doing analysis at TEMP = 27.000000 and TNOM = 27.000000


Initial Transient Solution
--------------------------

Node                                   Voltage
----                                   -------
pos_supply                                 1.8
xpg1.reset_loop                            1.8
xpg1.critical_node                     1.73839
neg_supply                                   0
snoise                                       0
outb                               9.68599e-07
xpg1.invo                          2.52675e-06
xpg1.xe                                    1.8
outa                               9.68599e-07
xpg2.reset_loop                            1.8
xpg2.critical_node                         1.8
xpg2.bc                                    1.8
xpg2.invo                          9.68599e-07
xpg2.xe                                    1.8
v2#branch                                    0
v4#branch                          2.79167e-09
v3#branch                         -2.79167e-09



No. of Data Rows : 5565
responsetimea1      =  8.870894e-10
responsetimea2      =  9.357629e-10
responsetimea3      =  1.025792e-09
responsetimea4      =  1.110630e-09
responsetimeb1      =  9.945403e-10
responsetimeb2      =  1.031058e-09
responsetimeb3      =  1.151639e-09
responsetimeb4      =  1.185833e-09
tdiff = 2.235406e-10
iavg                =  -2.492554e-04 from=  8.870894e-10 to=  1.110847e-09
iavg = -2.49255e-04
Note: No ".plot", ".print", or ".fourier" lines; no simulations run
