
Circuit: *pulseloop

Doing analysis at TEMP = 27.000000 and TNOM = 27.000000


Initial Transient Solution
--------------------------

Node                                   Voltage
----                                   -------
pos_supply                                 1.8
xpg1.reset_loop                            1.8
xpg1.critical_node                     1.73839
neg_supply                                   0
snoise                                       0
outb                               9.68599e-07
xpg1.invo                          2.52675e-06
xpg1.xe                                    1.8
outa                               9.68599e-07
xpg2.reset_loop                            1.8
xpg2.critical_node                         1.8
xpg2.bc                                    1.8
xpg2.invo                          9.68599e-07
xpg2.xe                                    1.8
v2#branch                                    0
v4#branch                          2.79167e-09
v3#branch                         -2.79167e-09



No. of Data Rows : 5566
responsetimea1      =  2.749360e-10
responsetimea2      =  3.318481e-10
responsetimea3      =  6.080722e-10
responsetimea4      =  6.612817e-10
responsetimeb1      =  5.153869e-09
responsetimeb2      =  5.212234e-09
responsetimeb3      =  1.104042e-08
responsetimeb4      =  1.108402e-08
iavg_start_to_response_a1=  -2.754494e-05 from=  0.000000e+00 to=  2.780666e-10
iavg_start_to_response_b1=  -6.198664e-05 from=  0.000000e+00 to=  5.156543e-09
iavg_from_response_a1_to_response_a4=  -1.146260e-04 from=  2.749360e-10 to=  6.620841e-10
iavg_from_response_b1_to_response_b4=  -5.760257e-05 from=  5.153869e-09 to=  1.108535e-08
iavg_from_response_a1_to_response_b1=  0.000000e+00 from=  5.153869e-09 to=  5.156543e-09
Note: No ".plot", ".print", or ".fourier" lines; no simulations run
