
Circuit: *pulseloop

Doing analysis at TEMP = 27.000000 and TNOM = 27.000000


Initial Transient Solution
--------------------------

Node                                   Voltage
----                                   -------
pos_supply                                 1.8
xpg1.reset_loop                            1.8
xpg1.critical_node                     1.73839
neg_supply                                   0
snoise                                       0
outb                               9.68599e-07
xpg1.invo                          2.52675e-06
xpg1.xe                                    1.8
outa                               9.68599e-07
xpg2.reset_loop                            1.8
xpg2.critical_node                         1.8
xpg2.bc                                    1.8
xpg2.invo                          9.68599e-07
xpg2.xe                                    1.8
v2#branch                                    0
v4#branch                          2.79167e-09
v3#branch                         -2.79167e-09



No. of Data Rows : 7131
responsetimea1      =  3.587835e-10
responsetimea2      =  4.024764e-10
responsetimea3      =  6.747527e-10
responsetimea4      =  7.207390e-10
responsetimeb1      =  1.124734e-08
responsetimeb2      =  1.127343e-08
responsetimeb3      =  1.722361e-08
responsetimeb4      =  1.727544e-08
iavg_start_to_response_a1=  -8.365528e-06 from=  0.000000e+00 to=  3.600000e-10
iavg_start_to_response_b1=  -4.245013e-05 from=  0.000000e+00 to=  1.125090e-08
iavg_from_response_a1_to_response_a4=  -7.595779e-05 from=  3.587835e-10 to=  7.210000e-10
iavg_from_response_b1_to_response_b4=  -4.096353e-05 from=  1.124734e-08 to=  1.728000e-08
iavg_from_response_a1_to_response_b1=  0.000000e+00 from=  1.124734e-08 to=  1.125090e-08
Note: No ".plot", ".print", or ".fourier" lines; no simulations run
