
Circuit: *pulseloop

Doing analysis at TEMP = 27.000000 and TNOM = 27.000000


Initial Transient Solution
--------------------------

Node                                   Voltage
----                                   -------
pos_supply                                 1.8
xpg1.reset_loop                            1.8
xpg1.critical_node                     1.73839
neg_supply                                   0
snoise                                       0
outb                               9.68599e-07
xpg1.invo                          2.52675e-06
xpg1.xe                                    1.8
outa                               9.68599e-07
xpg2.reset_loop                            1.8
xpg2.critical_node                         1.8
xpg2.bc                                    1.8
xpg2.invo                          9.68599e-07
xpg2.xe                                    1.8
v2#branch                                    0
v4#branch                          2.79167e-09
v3#branch                         -2.79167e-09



No. of Data Rows : 5564
responsetimea1      =  1.134083e-10
responsetimea2      =  1.684918e-10
responsetimea3      =  3.977439e-10
responsetimea4      =  4.563851e-10
responsetimeb1      =  2.343111e-09
responsetimeb2      =  2.379024e-09
responsetimeb3      =  8.470886e-09
responsetimeb4      =  8.478026e-09
tdiff = 3.429768e-10
iavg                =  -1.491183e-04 from=  1.134083e-10 to=  4.567382e-10
iavg = -1.49118e-04
Note: No ".plot", ".print", or ".fourier" lines; no simulations run
