
Circuit: *pulseloop

Doing analysis at TEMP = 27.000000 and TNOM = 27.000000


Initial Transient Solution
--------------------------

Node                                   Voltage
----                                   -------
pos_supply                                 1.8
xpg1.reset_loop                            1.8
xpg1.critical_node                     1.73839
neg_supply                                   0
snoise                                       0
outb                               9.68599e-07
xpg1.invo                          2.52675e-06
xpg1.xe                                    1.8
outa                               9.68599e-07
xpg2.reset_loop                            1.8
xpg2.critical_node                         1.8
xpg2.bc                                    1.8
xpg2.invo                          9.68599e-07
xpg2.xe                                    1.8
v2#branch                                    0
v4#branch                          2.79167e-09
v3#branch                         -2.79167e-09

doAnalyses: TRAN:  Timestep too small; time = 1.60019e-09, timestep = 1.25e-23: trouble with node "v2#branch"


tran simulation(s) aborted
responsetimea1      =  2.447555e-10
responsetimea2      =  3.051268e-10
responsetimea3      =  3.763927e-10
responsetimea4      =  4.324030e-10
responsetimeb1      =  6.487791e-10
responsetimeb2      =  6.917983e-10
responsetimeb3      =  1.184062e-09
responsetimeb4      =  1.220690e-09
tdiff = 1.876475e-10
iavg                =  -3.303218e-04 from=  2.447555e-10 to=  4.400000e-10
iavg = -3.30322e-04
Note: No ".plot", ".print", or ".fourier" lines; no simulations run
