
Circuit: *pulseloop

Doing analysis at TEMP = 27.000000 and TNOM = 27.000000


Initial Transient Solution
--------------------------

Node                                   Voltage
----                                   -------
pos_supply                                 1.8
xpg1.reset_loop                            1.8
xpg1.critical_node                     1.73839
neg_supply                                   0
snoise                                       0
outb                               9.68599e-07
xpg1.invo                          2.52675e-06
xpg1.xe                                    1.8
outa                               9.68599e-07
xpg2.reset_loop                            1.8
xpg2.critical_node                         1.8
xpg2.bc                                    1.8
xpg2.invo                          9.68599e-07
xpg2.xe                                    1.8
v2#branch                                    0
v4#branch                          2.79167e-09
v3#branch                         -2.79167e-09

doAnalyses: TRAN:  Timestep too small; time = 1.068e-08, timestep = 1.25e-23: trouble with node "v2#branch"


tran simulation(s) aborted
responsetimea1      =  6.665971e-10
responsetimea2      =  7.128813e-10
responsetimea3      =  1.098848e-09
responsetimea4      =  1.144019e-09
responsetimeb1      =  2.884277e-09
responsetimeb2      =  2.924624e-09
responsetimeb3      =  5.446024e-09
responsetimeb4      =  5.478418e-09
iavg_start_to_response_a1=  -2.040967e-05 from=  0.000000e+00 to=  6.670000e-10
iavg_start_to_response_b1=  -1.086805e-04 from=  0.000000e+00 to=  2.887000e-09
iavg_from_response_a1_to_response_a4=  -1.216095e-04 from=  6.665971e-10 to=  1.144968e-09
iavg_from_response_b1_to_response_b4=  -1.410151e-04 from=  2.884277e-09 to=  5.480000e-09
iavg_from_response_a1_to_response_b1=  0.000000e+00 from=  2.884277e-09 to=  2.887000e-09
Note: No ".plot", ".print", or ".fourier" lines; no simulations run
