
Circuit: *pulseloop

Doing analysis at TEMP = 27.000000 and TNOM = 27.000000


Initial Transient Solution
--------------------------

Node                                   Voltage
----                                   -------
pos_supply                                 1.8
xpg1.reset_loop                            1.8
xpg1.critical_node                     1.73839
neg_supply                                   0
snoise                                       0
outb                               9.68599e-07
xpg1.invo                          2.52675e-06
xpg1.xe                                    1.8
outa                               9.68599e-07
xpg2.reset_loop                            1.8
xpg2.critical_node                         1.8
xpg2.bc                                    1.8
xpg2.invo                          9.68599e-07
xpg2.xe                                    1.8
v2#branch                                    0
v4#branch                          2.79167e-09
v3#branch                         -2.79167e-09

doAnalyses: TRAN:  Timestep too small; time = 4.77998e-09, timestep = 1.25e-23: trouble with node "v2#branch"


tran simulation(s) aborted
responsetimea1      =  3.492429e-10
responsetimea2      =  4.193791e-10
responsetimea3      =  6.045050e-10
responsetimea4      =  6.500938e-10
responsetimeb1      =  2.183476e-09
responsetimeb2      =  2.236505e-09
responsetimeb3      =  3.668399e-09
responsetimeb4      =  3.702540e-09
tdiff = 3.008509e-10
iavg                =  -1.476167e-04 from=  3.492429e-10 to=  6.546519e-10
iavg = -1.47617e-04
Note: No ".plot", ".print", or ".fourier" lines; no simulations run
