
Circuit: *pulseloop

Doing analysis at TEMP = 27.000000 and TNOM = 27.000000


Initial Transient Solution
--------------------------

Node                                   Voltage
----                                   -------
pos_supply                                 1.8
xpg1.reset_loop                            1.8
xpg1.critical_node                     1.73839
neg_supply                                   0
snoise                                       0
outb                               9.68599e-07
xpg1.invo                          2.52675e-06
xpg1.xe                                    1.8
outa                               9.68599e-07
xpg2.reset_loop                            1.8
xpg2.critical_node                         1.8
xpg2.bc                                    1.8
xpg2.invo                          9.68599e-07
xpg2.xe                                    1.8
v2#branch                                    0
v4#branch                          2.79167e-09
v3#branch                         -2.79167e-09

doAnalyses: TRAN:  Timestep too small; time = 3.5e-09, timestep = 1.25e-23: cause unrecorded.


tran simulation(s) aborted
responsetimea1      =  8.380970e-11
responsetimea2      =  1.608613e-10
responsetimea3      =  2.807821e-10
responsetimea4      =  3.467393e-10
responsetimeb1      =  2.173682e-09
responsetimeb2      =  2.223749e-09
responsetimeb3      =  2.315776e-09
responsetimeb4      =  2.353448e-09
tdiff = 2.629296e-10
iavg                =  -2.068731e-04 from=  8.380970e-11 to=  3.473486e-10
iavg = -2.06873e-04
Note: No ".plot", ".print", or ".fourier" lines; no simulations run
