
Circuit: *pulseloop

Doing analysis at TEMP = 27.000000 and TNOM = 27.000000


Initial Transient Solution
--------------------------

Node                                   Voltage
----                                   -------
xpg1.1                                     1.8
xpg1.reset_loop                            1.8
xpg1.critical_node                     1.74017
snoise                                       0
outb                               9.68599e-07
xpg1.invo                          2.45983e-06
xpg1.xe                                    1.8
outa                               9.68599e-07
xpg2.1                                     1.8
xpg2.reset_loop                            1.8
xpg2.critical_node                         1.8
xpg2.bc                                    1.8
xpg2.invo                          9.68599e-07
xpg2.xe                                    1.8
v2#branch                                    0
v.xpg2.v1#branch                  -1.01106e-09
v.xpg1.v1#branch                  -1.74993e-09

doAnalyses: TRAN:  Timestep too small; time = 2.14601e-08, timestep = 1.25e-23: trouble with node "m.xpg2.xm2.msky130_fd_pr__nfet_01v8#sbody"


tran simulation(s) aborted
Doing analysis at TEMP = 27.000000 and TNOM = 27.000000


  Measurements for Transient Analysis

responsetimea       =   4.32338e-10
responsetimea       =   4.76162e-10
responsetimea       =   8.49368e-10
responsetimea       =   9.11860e-10
responsetimeb       =   5.64337e-09
responsetimeb       =   5.68876e-09
responsetimeb       =   7.94147e-09
responsetimeb       =   7.94311e-09

CPU time since last call: 10.732 seconds.

Total CPU time: 10.732 seconds.

Total DRAM available = 128860.140625 MB.
DRAM currently available = 121645.785156 MB.
Total ngspice program size = 44.396484 MB.
Resident set size = 29.984375 MB.
Shared ngspice pages = 2.076172 MB.
Text (code) pages = 1.597656 MB.
Stack = 0 bytes.
Library pages = 28.015625 MB.

