
Circuit: *pulseloop

Doing analysis at TEMP = 27.000000 and TNOM = 27.000000


Initial Transient Solution
--------------------------

Node                                   Voltage
----                                   -------
pos_supply                                 1.8
xpg1.reset_loop                            1.8
xpg1.critical_node                     1.73839
neg_supply                                   0
snoise                                       0
outb                               9.68599e-07
xpg1.invo                          2.52675e-06
xpg1.xe                                    1.8
outa                               9.68599e-07
xpg2.reset_loop                            1.8
xpg2.critical_node                         1.8
xpg2.bc                                    1.8
xpg2.invo                          9.68599e-07
xpg2.xe                                    1.8
v2#branch                                    0
v4#branch                          2.79167e-09
v3#branch                         -2.79167e-09



No. of Data Rows : 9411
responsetimea1      =  8.954033e-10
responsetimea2      =  9.063746e-10
responsetimea3      =  1.787413e-09
responsetimea4      =  1.816504e-09
responsetimeb1      =  1.793940e-08
responsetimeb2      =  1.796564e-08
responsetimeb3      =  2.589170e-08
responsetimeb4      =  2.593483e-08
tdiff = 9.211007e-10
iavg                =  -3.059061e-05 from=  8.954033e-10 to=  1.818507e-09
iavg = -3.05906e-05
Note: No ".plot", ".print", or ".fourier" lines; no simulations run
