
Circuit: *pulseloop

Doing analysis at TEMP = 27.000000 and TNOM = 27.000000


Initial Transient Solution
--------------------------

Node                                   Voltage
----                                   -------
xpg1.1                                     1.8
xpg1.reset_loop                            1.8
xpg1.critical_node                     1.74017
snoise                                       0
outb                               9.68599e-07
xpg1.invo                          2.45983e-06
xpg1.xe                                    1.8
outa                               9.68599e-07
xpg2.1                                     1.8
xpg2.reset_loop                            1.8
xpg2.critical_node                         1.8
xpg2.bc                                    1.8
xpg2.invo                          9.68599e-07
xpg2.xe                                    1.8
v2#branch                                    0
v.xpg2.v1#branch                  -1.01106e-09
v.xpg1.v1#branch                  -1.74993e-09



No. of Data Rows : 27784

  Measurements for Transient Analysis


Error: measure  responsetimeb  (WHEN) : out of interval
 .measure tran responsetimeb when v(outb)=1.2 cross=1 failed!


Error: measure  responsetimeb  (WHEN) : out of interval
 .measure tran responsetimeb when v(outb)=1.2 cross=2 failed!


Error: measure  responsetimeb  (WHEN) : out of interval
 .measure tran responsetimeb when v(outb)=1.2 cross=3 failed!


Error: measure  responsetimeb  (WHEN) : out of interval
 .measure tran responsetimeb when v(outb)=1.2 cross=4 failed!

responsetimea       =   8.23263e-08
responsetimea       =   8.23492e-08
responsetimea       =   9.09479e-08
responsetimea       =   9.09747e-08

Doing analysis at TEMP = 27.000000 and TNOM = 27.000000


  Measurements for Transient Analysis


Error: measure  responsetimeb  (WHEN) : out of interval
 .measure tran responsetimeb when v(outb)=1.2 cross=1 failed!


Error: measure  responsetimeb  (WHEN) : out of interval
 .measure tran responsetimeb when v(outb)=1.2 cross=2 failed!


Error: measure  responsetimeb  (WHEN) : out of interval
 .measure tran responsetimeb when v(outb)=1.2 cross=3 failed!


Error: measure  responsetimeb  (WHEN) : out of interval
 .measure tran responsetimeb when v(outb)=1.2 cross=4 failed!

responsetimea       =   8.23263e-08
responsetimea       =   8.23492e-08
responsetimea       =   9.09479e-08
responsetimea       =   9.09747e-08

CPU time since last call: 15.660 seconds.

Total CPU time: 15.660 seconds.

Total DRAM available = 128860.140625 MB.
DRAM currently available = 121650.882812 MB.
Total ngspice program size = 48.915039 MB.
Resident set size = 34.453125 MB.
Shared ngspice pages = 2.034180 MB.
Text (code) pages = 1.597656 MB.
Stack = 0 bytes.
Library pages = 32.534180 MB.

