
Circuit: *pulseloop

Doing analysis at TEMP = 27.000000 and TNOM = 27.000000


Initial Transient Solution
--------------------------

Node                                   Voltage
----                                   -------
pos_supply                                 1.8
xpg1.reset_loop                            1.8
xpg1.critical_node                     1.73839
neg_supply                                   0
snoise                                       0
outb                               9.68599e-07
xpg1.invo                          2.52675e-06
xpg1.xe                                    1.8
outa                               9.68599e-07
xpg2.reset_loop                            1.8
xpg2.critical_node                         1.8
xpg2.bc                                    1.8
xpg2.invo                          9.68599e-07
xpg2.xe                                    1.8
v2#branch                                    0
v4#branch                          2.79167e-09
v3#branch                         -2.79167e-09



No. of Data Rows : 4484
responsetimea1      =  1.969260e-10
responsetimea2      =  2.525575e-10
responsetimea3      =  3.554730e-10
responsetimea4      =  4.396253e-10
responsetimeb1      =  9.862062e-10
responsetimeb2      =  1.016138e-09
responsetimeb3      =  4.044508e-09
responsetimeb4      =  4.064408e-09
tdiff = 2.426993e-10
iavg                =  -2.140404e-04 from=  1.969260e-10 to=  4.400000e-10
iavg = -2.14040e-04
Note: No ".plot", ".print", or ".fourier" lines; no simulations run
