
Circuit: *pulseloop

Doing analysis at TEMP = 27.000000 and TNOM = 27.000000


Initial Transient Solution
--------------------------

Node                                   Voltage
----                                   -------
pos_supply                                 1.8
xpg1.reset_loop                            1.8
xpg1.critical_node                     1.73839
neg_supply                                   0
snoise                                       0
outb                               9.68599e-07
xpg1.invo                          2.52675e-06
xpg1.xe                                    1.8
outa                               9.68599e-07
xpg2.reset_loop                            1.8
xpg2.critical_node                         1.8
xpg2.bc                                    1.8
xpg2.invo                          9.68599e-07
xpg2.xe                                    1.8
v2#branch                                    0
v4#branch                          2.79167e-09
v3#branch                         -2.79167e-09

doAnalyses: TRAN:  Timestep too small; time = 5.08e-09, timestep = 1.25e-23: cause unrecorded.


tran simulation(s) aborted
responsetimea1      =  2.824104e-10
responsetimea2      =  3.293353e-10
responsetimea3      =  7.642892e-10
responsetimea4      =  8.096232e-10
responsetimeb1      =  1.438889e-09
responsetimeb2      =  1.497452e-09
responsetimeb3      =  1.881631e-09
responsetimeb4      =  1.907029e-09
tdiff = 5.272128e-10
iavg                =  -5.423986e-05 from=  2.824104e-10 to=  8.142934e-10
iavg = -5.42399e-05
Note: No ".plot", ".print", or ".fourier" lines; no simulations run
