
Circuit: *pulseloop

Doing analysis at TEMP = 27.000000 and TNOM = 27.000000


Initial Transient Solution
--------------------------

Node                                   Voltage
----                                   -------
pos_supply                                 1.8
xpg1.reset_loop                            1.8
xpg1.critical_node                     1.73839
neg_supply                                   0
snoise                                       0
outb                               9.68599e-07
xpg1.invo                          2.52675e-06
xpg1.xe                                    1.8
outa                               9.68599e-07
xpg2.reset_loop                            1.8
xpg2.critical_node                         1.8
xpg2.bc                                    1.8
xpg2.invo                          9.68599e-07
xpg2.xe                                    1.8
v2#branch                                    0
v4#branch                          2.79167e-09
v3#branch                         -2.79167e-09



No. of Data Rows : 5518
responsetimea1      =  1.004948e-10
responsetimea2      =  1.657703e-10
responsetimea3      =  2.662754e-10
responsetimea4      =  3.167939e-10
responsetimeb1      =  1.298065e-08
responsetimeb2      =  1.302030e-08

Error: measure  responsetimeb3  (WHEN) : out of interval
 meas tran responsetimeb3 when v(outb)=1.2 cross=3 failed!


Error: measure  responsetimeb4  (WHEN) : out of interval
 meas tran responsetimeb4 when v(outb)=1.2 cross=4 failed!

iavg_start_to_response_a1=  -8.429603e-05 from=  0.000000e+00 to=  1.006746e-10
iavg_start_to_response_b1=  -2.298320e-04 from=  0.000000e+00 to=  1.298100e-08
iavg_from_response_a1_to_response_a4=  -1.749850e-04 from=  1.004948e-10 to=  3.200000e-10

Error: measure  iavg_from_response_b1_to_response_b4  (TRIG) : bad syntax of ??
 meas tran iavg_from_response_b1_to_response_b4 avg i(v3) from=1.298065e-08 to=responsetimeb4 failed!

iavg_from_response_a1_to_response_b1=  0.000000e+00 from=  1.298065e-08 to=  1.298100e-08
Note: No ".plot", ".print", or ".fourier" lines; no simulations run
