
Circuit: *pulseloop

Doing analysis at TEMP = 27.000000 and TNOM = 27.000000


Initial Transient Solution
--------------------------

Node                                   Voltage
----                                   -------
xpg1.1                                     1.8
xpg1.reset_loop                            1.8
xpg1.critical_node                     1.74017
snoise                                       0
outb                               9.68599e-07
xpg1.invo                          2.45983e-06
xpg1.xe                                    1.8
outa                               9.68599e-07
xpg2.1                                     1.8
xpg2.reset_loop                            1.8
xpg2.critical_node                         1.8
xpg2.bc                                    1.8
xpg2.invo                          9.68599e-07
xpg2.xe                                    1.8
v2#branch                                    0
v.xpg2.v1#branch                  -1.01106e-09
v.xpg1.v1#branch                  -1.74993e-09

doAnalyses: TRAN:  Timestep too small; time = 1.638e-08, timestep = 1.25e-23: trouble with node "v2#branch"


tran simulation(s) aborted
Doing analysis at TEMP = 27.000000 and TNOM = 27.000000


  Measurements for Transient Analysis

responsetimea       =   1.26104e-10
responsetimea       =   1.86338e-10
responsetimea       =   3.37182e-10
responsetimea       =   3.74995e-10
responsetimeb       =   2.97421e-09
responsetimeb       =   3.01292e-09
responsetimeb       =   1.15633e-08
responsetimeb       =   1.16078e-08

CPU time since last call: 10.000 seconds.

Total CPU time: 10.000 seconds.

Total DRAM available = 128860.140625 MB.
DRAM currently available = 121642.546875 MB.
Total ngspice program size = 43.997070 MB.
Resident set size = 29.590820 MB.
Shared ngspice pages = 2.070312 MB.
Text (code) pages = 1.597656 MB.
Stack = 0 bytes.
Library pages = 27.616211 MB.

