
Circuit: *pulseloop

Doing analysis at TEMP = 27.000000 and TNOM = 27.000000


Initial Transient Solution
--------------------------

Node                                   Voltage
----                                   -------
pos_supply                                 1.8
xpg1.reset_loop                            1.8
xpg1.critical_node                     1.73839
neg_supply                                   0
snoise                                       0
outb                               9.68599e-07
xpg1.invo                          2.52675e-06
xpg1.xe                                    1.8
outa                               9.68599e-07
xpg2.reset_loop                            1.8
xpg2.critical_node                         1.8
xpg2.bc                                    1.8
xpg2.invo                          9.68599e-07
xpg2.xe                                    1.8
v2#branch                                    0
v4#branch                          2.79167e-09
v3#branch                         -2.79167e-09



No. of Data Rows : 5708
responsetimea1      =  1.738963e-10
responsetimea2      =  2.100743e-10
responsetimea3      =  4.636070e-10
responsetimea4      =  5.111273e-10
responsetimeb1      =  5.808575e-10
responsetimeb2      =  6.157631e-10
responsetimeb3      =  4.827684e-09
responsetimeb4      =  4.849536e-09
iavg_start_to_response_a1=  -5.884013e-05 from=  0.000000e+00 to=  1.780002e-10
iavg_start_to_response_b1=  -2.372936e-04 from=  0.000000e+00 to=  5.810000e-10
iavg_from_response_a1_to_response_a4=  -3.295825e-04 from=  1.738963e-10 to=  5.111865e-10
iavg_from_response_b1_to_response_b4=  -8.234273e-05 from=  5.808575e-10 to=  4.851801e-09
iavg_from_response_a1_to_response_b1=  0.000000e+00 from=  5.808575e-10 to=  5.810000e-10
Note: No ".plot", ".print", or ".fourier" lines; no simulations run
