
Circuit: *pulseloop

Doing analysis at TEMP = 27.000000 and TNOM = 27.000000


Initial Transient Solution
--------------------------

Node                                   Voltage
----                                   -------
pos_supply                                 1.8
xpg1.reset_loop                            1.8
xpg1.critical_node                     1.73839
neg_supply                                   0
snoise                                       0
outb                               9.68599e-07
xpg1.invo                          2.52675e-06
xpg1.xe                                    1.8
outa                               9.68599e-07
xpg2.reset_loop                            1.8
xpg2.critical_node                         1.8
xpg2.bc                                    1.8
xpg2.invo                          9.68599e-07
xpg2.xe                                    1.8
v2#branch                                    0
v4#branch                          2.79167e-09
v3#branch                         -2.79167e-09



No. of Data Rows : 7075
responsetimea1      =  6.771979e-10
responsetimea2      =  7.050206e-10
responsetimea3      =  1.158685e-09
responsetimea4      =  1.214899e-09
responsetimeb1      =  6.708636e-09
responsetimeb2      =  6.726255e-09
responsetimeb3      =  8.807508e-09
responsetimeb4      =  8.847910e-09
iavg_start_to_response_a1=  -1.260761e-05 from=  0.000000e+00 to=  6.800000e-10
iavg_start_to_response_b1=  -2.534509e-05 from=  0.000000e+00 to=  6.714158e-09
iavg_from_response_a1_to_response_a4=  -7.299883e-05 from=  6.771979e-10 to=  1.215853e-09
iavg_from_response_b1_to_response_b4=  -6.111230e-05 from=  6.708636e-09 to=  8.850208e-09
iavg_from_response_a1_to_response_b1=  0.000000e+00 from=  6.708636e-09 to=  6.714158e-09
Note: No ".plot", ".print", or ".fourier" lines; no simulations run
