
Circuit: *pulseloop

Doing analysis at TEMP = 27.000000 and TNOM = 27.000000


Initial Transient Solution
--------------------------

Node                                   Voltage
----                                   -------
pos_supply                                 1.8
xpg1.reset_loop                            1.8
xpg1.critical_node                     1.73839
neg_supply                                   0
snoise                                       0
outb                               9.68599e-07
xpg1.invo                          2.52675e-06
xpg1.xe                                    1.8
outa                               9.68599e-07
xpg2.reset_loop                            1.8
xpg2.critical_node                         1.8
xpg2.bc                                    1.8
xpg2.invo                          9.68599e-07
xpg2.xe                                    1.8
v2#branch                                    0
v4#branch                          2.79167e-09
v3#branch                         -2.79167e-09



No. of Data Rows : 7153
responsetimea1      =  2.477181e-10
responsetimea2      =  2.929286e-10
responsetimea3      =  4.653664e-10
responsetimea4      =  5.191982e-10
responsetimeb1      =  3.101332e-09
responsetimeb2      =  3.135770e-09
responsetimeb3      =  1.334556e-08
responsetimeb4      =  1.338683e-08
iavg_start_to_response_a1=  -6.766539e-05 from=  0.000000e+00 to=  2.490444e-10
iavg_start_to_response_b1=  -5.092981e-05 from=  0.000000e+00 to=  3.103000e-09
iavg_from_response_a1_to_response_a4=  -1.664107e-04 from=  2.477181e-10 to=  5.200000e-10
iavg_from_response_b1_to_response_b4=  -4.155403e-05 from=  3.101332e-09 to=  1.338700e-08
iavg_from_response_a1_to_response_b1=  0.000000e+00 from=  3.101332e-09 to=  3.103000e-09
Note: No ".plot", ".print", or ".fourier" lines; no simulations run
