
Circuit: *pulseloop

Doing analysis at TEMP = 27.000000 and TNOM = 27.000000


Initial Transient Solution
--------------------------

Node                                   Voltage
----                                   -------
pos_supply                                 1.8
xpg1.reset_loop                            1.8
xpg1.critical_node                     1.73839
neg_supply                                   0
snoise                                       0
outb                               9.68599e-07
xpg1.invo                          2.52675e-06
xpg1.xe                                    1.8
outa                               9.68599e-07
xpg2.reset_loop                            1.8
xpg2.critical_node                         1.8
xpg2.bc                                    1.8
xpg2.invo                          9.68599e-07
xpg2.xe                                    1.8
v2#branch                                    0
v4#branch                          2.79167e-09
v3#branch                         -2.79167e-09



No. of Data Rows : 3785
responsetimea1      =  1.586176e-10
responsetimea2      =  2.138255e-10
responsetimea3      =  7.476777e-10
responsetimea4      =  7.782610e-10
responsetimeb1      =  5.560955e-09
responsetimeb2      =  5.597530e-09
responsetimeb3      =  6.023828e-09
responsetimeb4      =  6.082740e-09
iavg_start_to_response_a1=  -2.345342e-05 from=  0.000000e+00 to=  1.600000e-10
iavg_start_to_response_b1=  -8.860409e-05 from=  0.000000e+00 to=  5.561000e-09
iavg_from_response_a1_to_response_a4=  -9.532788e-06 from=  1.586176e-10 to=  7.800000e-10
iavg_from_response_b1_to_response_b4=  -1.189174e-04 from=  5.560955e-09 to=  6.083093e-09
iavg_from_response_a1_to_response_b1=  0.000000e+00 from=  5.560955e-09 to=  5.561000e-09
Note: No ".plot", ".print", or ".fourier" lines; no simulations run
