
Circuit: *pulseloop

Doing analysis at TEMP = 27.000000 and TNOM = 27.000000


Initial Transient Solution
--------------------------

Node                                   Voltage
----                                   -------
pos_supply                                 1.8
xpg1.reset_loop                            1.8
xpg1.critical_node                     1.73839
neg_supply                                   0
snoise                                       0
outb                               9.68599e-07
xpg1.invo                          2.52675e-06
xpg1.xe                                    1.8
outa                               9.68599e-07
xpg2.reset_loop                            1.8
xpg2.critical_node                         1.8
xpg2.bc                                    1.8
xpg2.invo                          9.68599e-07
xpg2.xe                                    1.8
v2#branch                                    0
v4#branch                          2.79167e-09
v3#branch                         -2.79167e-09

doAnalyses: TRAN:  Timestep too small; time = 8.58011e-09, timestep = 1.25e-23: trouble with node "m.xpg2.xm9.msky130_fd_pr__nfet_01v8#body"


tran simulation(s) aborted
responsetimea1      =  2.475768e-10
responsetimea2      =  3.176674e-10
responsetimea3      =  5.535412e-10
responsetimea4      =  5.855176e-10
responsetimeb1      =  7.911796e-09
responsetimeb2      =  7.939125e-09

Error: measure  responsetimeb3  (WHEN) : out of interval
 meas tran responsetimeb3 when v(outb)=1.2 cross=3 failed!


Error: measure  responsetimeb4  (WHEN) : out of interval
 meas tran responsetimeb4 when v(outb)=1.2 cross=4 failed!

iavg_start_to_response_a1=  -4.144400e-05 from=  0.000000e+00 to=  2.503071e-10
iavg_start_to_response_b1=  -7.233279e-05 from=  0.000000e+00 to=  7.918733e-09
iavg_from_response_a1_to_response_a4=  -1.107691e-04 from=  2.475768e-10 to=  5.870000e-10

Error: measure  iavg_from_response_b1_to_response_b4  (TRIG) : bad syntax of ??
 meas tran iavg_from_response_b1_to_response_b4 avg i(v3) from=7.911796e-09 to=responsetimeb4 failed!

iavg_from_response_a1_to_response_b1=  0.000000e+00 from=  7.911796e-09 to=  7.918733e-09
Note: No ".plot", ".print", or ".fourier" lines; no simulations run
