
Circuit: *pulseloop

Doing analysis at TEMP = 27.000000 and TNOM = 27.000000


Initial Transient Solution
--------------------------

Node                                   Voltage
----                                   -------
pos_supply                                 1.8
xpg1.reset_loop                            1.8
xpg1.critical_node                     1.73839
neg_supply                                   0
snoise                                       0
outb                               9.68599e-07
xpg1.invo                          2.52675e-06
xpg1.xe                                    1.8
outa                               9.68599e-07
xpg2.reset_loop                            1.8
xpg2.critical_node                         1.8
xpg2.bc                                    1.8
xpg2.invo                          9.68599e-07
xpg2.xe                                    1.8
v2#branch                                    0
v4#branch                          2.79167e-09
v3#branch                         -2.79167e-09

doAnalyses: TRAN:  Timestep too small; time = 1.56001e-09, timestep = 1.25e-23: trouble with node "v2#branch"


tran simulation(s) aborted
responsetimea1      =  1.376681e-10
responsetimea2      =  2.059104e-10
responsetimea3      =  2.903725e-10
responsetimea4      =  3.308167e-10
responsetimeb1      =  6.524201e-10
responsetimeb2      =  7.256674e-10
responsetimeb3      =  8.478821e-10
responsetimeb4      =  8.662896e-10
iavg_start_to_response_a1=  -8.451457e-05 from=  0.000000e+00 to=  1.400000e-10
iavg_start_to_response_b1=  -7.105682e-05 from=  0.000000e+00 to=  6.575878e-10
iavg_from_response_a1_to_response_a4=  2.616819e-04 from=  1.376681e-10 to=  3.353777e-10
iavg_from_response_b1_to_response_b4=  -2.675863e-04 from=  6.524201e-10 to=  8.670000e-10
iavg_from_response_a1_to_response_b1=  0.000000e+00 from=  6.524201e-10 to=  6.575878e-10
Note: No ".plot", ".print", or ".fourier" lines; no simulations run
