
Circuit: *pulseloop

Doing analysis at TEMP = 27.000000 and TNOM = 27.000000


Initial Transient Solution
--------------------------

Node                                   Voltage
----                                   -------
pos_supply                                 1.8
xpg1.reset_loop                            1.8
xpg1.critical_node                     1.73839
neg_supply                                   0
snoise                                       0
outb                               9.68599e-07
xpg1.invo                          2.52675e-06
xpg1.xe                                    1.8
outa                               9.68599e-07
xpg2.reset_loop                            1.8
xpg2.critical_node                         1.8
xpg2.bc                                    1.8
xpg2.invo                          9.68599e-07
xpg2.xe                                    1.8
v2#branch                                    0
v4#branch                          2.79167e-09
v3#branch                         -2.79167e-09

doAnalyses: TRAN:  Timestep too small; time = 6.6e-10, timestep = 1.25e-23: cause unrecorded.


tran simulation(s) aborted
responsetimea1      =  1.350173e-10
responsetimea2      =  2.734059e-10
responsetimea3      =  3.260155e-10
responsetimea4      =  3.934950e-10
responsetimeb1      =  2.602014e-10
responsetimeb2      =  3.110178e-10

Error: measure  responsetimeb3  (WHEN) : out of interval
 meas tran responsetimeb3 when v(outb)=1.2 cross=3 failed!


Error: measure  responsetimeb4  (WHEN) : out of interval
 meas tran responsetimeb4 when v(outb)=1.2 cross=4 failed!

tdiff = 2.584777e-10
iavg                =  -3.043535e-04 from=  1.350173e-10 to=  3.983486e-10
iavg = -3.04354e-04
Note: No ".plot", ".print", or ".fourier" lines; no simulations run
