
Circuit: *pulseloop

Doing analysis at TEMP = 27.000000 and TNOM = 27.000000


Initial Transient Solution
--------------------------

Node                                   Voltage
----                                   -------
pos_supply                                 1.8
xpg1.reset_loop                            1.8
xpg1.critical_node                     1.73839
neg_supply                                   0
snoise                                       0
outb                               9.68599e-07
xpg1.invo                          2.52675e-06
xpg1.xe                                    1.8
outa                               9.68599e-07
xpg2.reset_loop                            1.8
xpg2.critical_node                         1.8
xpg2.bc                                    1.8
xpg2.invo                          9.68599e-07
xpg2.xe                                    1.8
v2#branch                                    0
v4#branch                          2.79167e-09
v3#branch                         -2.79167e-09



No. of Data Rows : 5645
responsetimea1      =  4.838678e-10
responsetimea2      =  5.366362e-10
responsetimea3      =  7.617595e-10
responsetimea4      =  8.207430e-10
responsetimeb1      =  7.010357e-09
responsetimeb2      =  7.025308e-09
responsetimeb3      =  1.304127e-08
responsetimeb4      =  1.306043e-08
iavg_start_to_response_a1=  -8.094907e-05 from=  0.000000e+00 to=  4.870000e-10
iavg_start_to_response_b1=  -5.865095e-05 from=  0.000000e+00 to=  7.013031e-09
iavg_from_response_a1_to_response_a4=  -8.669753e-05 from=  4.838678e-10 to=  8.210000e-10
iavg_from_response_b1_to_response_b4=  -7.741381e-05 from=  7.010357e-09 to=  1.306067e-08
iavg_from_response_a1_to_response_b1=  0.000000e+00 from=  7.010357e-09 to=  7.013031e-09
Note: No ".plot", ".print", or ".fourier" lines; no simulations run
