
Circuit: *pulseloop

Doing analysis at TEMP = 27.000000 and TNOM = 27.000000


Initial Transient Solution
--------------------------

Node                                   Voltage
----                                   -------
pos_supply                                 1.8
xpg1.reset_loop                            1.8
xpg1.critical_node                     1.73839
neg_supply                                   0
snoise                                       0
outb                               9.68599e-07
xpg1.invo                          2.52675e-06
xpg1.xe                                    1.8
outa                               9.68599e-07
xpg2.reset_loop                            1.8
xpg2.critical_node                         1.8
xpg2.bc                                    1.8
xpg2.invo                          9.68599e-07
xpg2.xe                                    1.8
v2#branch                                    0
v4#branch                          2.79167e-09
v3#branch                         -2.79167e-09

doAnalyses: TRAN:  Timestep too small; time = 9.2e-10, timestep = 1.25e-23: cause unrecorded.


tran simulation(s) aborted
responsetimea1      =  1.251465e-10
responsetimea2      =  1.858172e-10
responsetimea3      =  3.504871e-10
responsetimea4      =  4.533577e-10
responsetimeb1      =  5.054453e-10
responsetimeb2      =  5.086193e-10
responsetimeb3      =  7.649476e-10
responsetimeb4      =  8.109485e-10
iavg_start_to_response_a1=  -5.247574e-05 from=  0.000000e+00 to=  1.277917e-10
iavg_start_to_response_b1=  -1.482340e-04 from=  0.000000e+00 to=  5.060595e-10
iavg_from_response_a1_to_response_a4=  -1.471215e-04 from=  1.251465e-10 to=  4.552308e-10
iavg_from_response_b1_to_response_b4=  -2.847320e-04 from=  5.054453e-10 to=  8.142361e-10
iavg_from_response_a1_to_response_b1=  0.000000e+00 from=  5.054453e-10 to=  5.060595e-10
Note: No ".plot", ".print", or ".fourier" lines; no simulations run
