
Circuit: *pulseloop

Doing analysis at TEMP = 27.000000 and TNOM = 27.000000


Initial Transient Solution
--------------------------

Node                                   Voltage
----                                   -------
pos_supply                                 1.8
xpg1.reset_loop                            1.8
xpg1.critical_node                     1.73839
neg_supply                                   0
snoise                                       0
outb                               9.68599e-07
xpg1.invo                          2.52675e-06
xpg1.xe                                    1.8
outa                               9.68599e-07
xpg2.reset_loop                            1.8
xpg2.critical_node                         1.8
xpg2.bc                                    1.8
xpg2.invo                          9.68599e-07
xpg2.xe                                    1.8
v2#branch                                    0
v4#branch                          2.79167e-09
v3#branch                         -2.79167e-09



No. of Data Rows : 4469
responsetimea1      =  5.369881e-10
responsetimea2      =  5.850791e-10
responsetimea3      =  7.987241e-10
responsetimea4      =  8.534505e-10
responsetimeb1      =  2.278999e-09
responsetimeb2      =  2.321969e-09
responsetimeb3      =  3.260890e-09
responsetimeb4      =  3.315038e-09
tdiff = 3.164624e-10
iavg                =  -1.267885e-04 from=  5.369881e-10 to=  8.555982e-10
iavg = -1.26789e-04
Note: No ".plot", ".print", or ".fourier" lines; no simulations run
