
Circuit: *pulseloop

Doing analysis at TEMP = 27.000000 and TNOM = 27.000000


Initial Transient Solution
--------------------------

Node                                   Voltage
----                                   -------
pos_supply                                 1.8
xpg1.reset_loop                            1.8
xpg1.critical_node                     1.73839
neg_supply                                   0
snoise                                       0
outb                               9.68599e-07
xpg1.invo                          2.52675e-06
xpg1.xe                                    1.8
outa                               9.68599e-07
xpg2.reset_loop                            1.8
xpg2.critical_node                         1.8
xpg2.bc                                    1.8
xpg2.invo                          9.68599e-07
xpg2.xe                                    1.8
v2#branch                                    0
v4#branch                          2.79167e-09
v3#branch                         -2.79167e-09

doAnalyses: TRAN:  Timestep too small; time = 3.64e-09, timestep = 1.25e-23: cause unrecorded.


tran simulation(s) aborted
responsetimea1      =  2.877873e-10
responsetimea2      =  3.477455e-10
responsetimea3      =  4.956669e-10
responsetimea4      =  5.545975e-10
responsetimeb1      =  9.822826e-10
responsetimeb2      =  1.067713e-09
responsetimeb3      =  1.140424e-09
responsetimeb4      =  1.194588e-09
tdiff = 2.668102e-10
iavg                =  -1.526192e-04 from=  2.877873e-10 to=  5.561722e-10
iavg = -1.52619e-04
Note: No ".plot", ".print", or ".fourier" lines; no simulations run
