
Circuit: *pulseloop

Doing analysis at TEMP = 27.000000 and TNOM = 27.000000


Initial Transient Solution
--------------------------

Node                                   Voltage
----                                   -------
pos_supply                                 1.8
xpg1.reset_loop                            1.8
xpg1.critical_node                     1.73839
neg_supply                                   0
snoise                                       0
outb                               9.68599e-07
xpg1.invo                          2.52675e-06
xpg1.xe                                    1.8
outa                               9.68599e-07
xpg2.reset_loop                            1.8
xpg2.critical_node                         1.8
xpg2.bc                                    1.8
xpg2.invo                          9.68599e-07
xpg2.xe                                    1.8
v2#branch                                    0
v4#branch                          2.79167e-09
v3#branch                         -2.79167e-09

doAnalyses: TRAN:  Timestep too small; time = 5.96e-09, timestep = 1.25e-23: cause unrecorded.


tran simulation(s) aborted
responsetimea1      =  8.491662e-11
responsetimea2      =  1.436270e-10
responsetimea3      =  1.944301e-10
responsetimea4      =  2.639396e-10
responsetimeb1      =  2.800747e-09
responsetimeb2      =  2.841135e-09
responsetimeb3      =  2.941473e-09
responsetimeb4      =  2.979304e-09
iavg_start_to_response_a1=  -9.337918e-05 from=  0.000000e+00 to=  8.700000e-11
iavg_start_to_response_b1=  -1.209814e-04 from=  0.000000e+00 to=  2.801000e-09
iavg_from_response_a1_to_response_a4=  -2.895677e-04 from=  8.491662e-11 to=  2.670000e-10
iavg_from_response_b1_to_response_b4=  -2.886675e-04 from=  2.800747e-09 to=  2.980000e-09
iavg_from_response_a1_to_response_b1=  0.000000e+00 from=  2.800747e-09 to=  2.801000e-09
Note: No ".plot", ".print", or ".fourier" lines; no simulations run
