
Circuit: *pulseloop

Doing analysis at TEMP = 27.000000 and TNOM = 27.000000


Initial Transient Solution
--------------------------

Node                                   Voltage
----                                   -------
pos_supply                                 1.8
xpg1.reset_loop                            1.8
xpg1.critical_node                     1.73839
neg_supply                                   0
snoise                                       0
outb                               9.68599e-07
xpg1.invo                          2.52675e-06
xpg1.xe                                    1.8
outa                               9.68599e-07
xpg2.reset_loop                            1.8
xpg2.critical_node                         1.8
xpg2.bc                                    1.8
xpg2.invo                          9.68599e-07
xpg2.xe                                    1.8
v2#branch                                    0
v4#branch                          2.79167e-09
v3#branch                         -2.79167e-09

doAnalyses: TRAN:  Timestep too small; time = 2.38003e-09, timestep = 1.25e-23: trouble with node "m.xpg2.xm9.msky130_fd_pr__nfet_01v8#body"


tran simulation(s) aborted
responsetimea1      =  2.847384e-10
responsetimea2      =  3.451208e-10
responsetimea3      =  5.511149e-10
responsetimea4      =  6.156294e-10
responsetimeb1      =  6.493786e-10
responsetimeb2      =  7.043914e-10
responsetimeb3      =  1.867184e-09
responsetimeb4      =  1.921392e-09
iavg_start_to_response_a1=  -5.986514e-05 from=  0.000000e+00 to=  2.861361e-10
iavg_start_to_response_b1=  -1.076517e-04 from=  0.000000e+00 to=  6.529367e-10
iavg_from_response_a1_to_response_a4=  -1.337522e-04 from=  2.847384e-10 to=  6.200000e-10
iavg_from_response_b1_to_response_b4=  -1.640764e-04 from=  6.493786e-10 to=  1.923000e-09
iavg_from_response_a1_to_response_b1=  0.000000e+00 from=  6.493786e-10 to=  6.529367e-10
Note: No ".plot", ".print", or ".fourier" lines; no simulations run
