
Circuit: *pulseloop

Doing analysis at TEMP = 27.000000 and TNOM = 27.000000


Initial Transient Solution
--------------------------

Node                                   Voltage
----                                   -------
pos_supply                                 1.8
xpg1.reset_loop                            1.8
xpg1.critical_node                     1.73839
neg_supply                                   0
snoise                                       0
outb                               9.68599e-07
xpg1.invo                          2.52675e-06
xpg1.xe                                    1.8
outa                               9.68599e-07
xpg2.reset_loop                            1.8
xpg2.critical_node                         1.8
xpg2.bc                                    1.8
xpg2.invo                          9.68599e-07
xpg2.xe                                    1.8
v2#branch                                    0
v4#branch                          2.79167e-09
v3#branch                         -2.79167e-09



No. of Data Rows : 9460
responsetimea1      =  1.739667e-10
responsetimea2      =  2.348029e-10
responsetimea3      =  6.363613e-10
responsetimea4      =  6.913532e-10
responsetimeb1      =  1.060866e-08
responsetimeb2      =  1.064296e-08
responsetimeb3      =  1.711643e-08
responsetimeb4      =  1.715573e-08
tdiff = 5.173865e-10
iavg                =  -1.027634e-04 from=  1.739667e-10 to=  6.915996e-10
iavg = -1.02763e-04
Note: No ".plot", ".print", or ".fourier" lines; no simulations run
