
Circuit: *pulseloop

Doing analysis at TEMP = 27.000000 and TNOM = 27.000000


Initial Transient Solution
--------------------------

Node                                   Voltage
----                                   -------
pos_supply                                 1.8
xpg1.reset_loop                            1.8
xpg1.critical_node                     1.73839
neg_supply                                   0
snoise                                       0
outb                               9.68599e-07
xpg1.invo                          2.52675e-06
xpg1.xe                                    1.8
outa                               9.68599e-07
xpg2.reset_loop                            1.8
xpg2.critical_node                         1.8
xpg2.bc                                    1.8
xpg2.invo                          9.68599e-07
xpg2.xe                                    1.8
v2#branch                                    0
v4#branch                          2.79167e-09
v3#branch                         -2.79167e-09



No. of Data Rows : 3123
responsetimea1      =  7.910404e-11
responsetimea2      =  1.535795e-10
responsetimea3      =  2.632949e-10
responsetimea4      =  3.263801e-10
responsetimeb1      =  1.046549e-09
responsetimeb2      =  1.101534e-09
responsetimeb3      =  4.834739e-09
responsetimeb4      =  4.867937e-09
iavg_start_to_response_a1=  -8.489597e-05 from=  0.000000e+00 to=  8.000000e-11
iavg_start_to_response_b1=  1.085479e-05 from=  0.000000e+00 to=  1.048342e-09
iavg_from_response_a1_to_response_a4=  -1.799116e-04 from=  7.910404e-11 to=  3.286344e-10
iavg_from_response_b1_to_response_b4=  -9.020630e-05 from=  1.046549e-09 to=  4.870955e-09
iavg_from_response_a1_to_response_b1=  0.000000e+00 from=  1.046549e-09 to=  1.048342e-09
Note: No ".plot", ".print", or ".fourier" lines; no simulations run
