
Circuit: *pulseloop

Doing analysis at TEMP = 27.000000 and TNOM = 27.000000


Initial Transient Solution
--------------------------

Node                                   Voltage
----                                   -------
pos_supply                                 1.8
xpg1.reset_loop                            1.8
xpg1.critical_node                     1.73839
neg_supply                                   0
snoise                                       0
outb                               9.68599e-07
xpg1.invo                          2.52675e-06
xpg1.xe                                    1.8
outa                               9.68599e-07
xpg2.reset_loop                            1.8
xpg2.critical_node                         1.8
xpg2.bc                                    1.8
xpg2.invo                          9.68599e-07
xpg2.xe                                    1.8
v2#branch                                    0
v4#branch                          2.79167e-09
v3#branch                         -2.79167e-09

doAnalyses: TRAN:  Timestep too small; time = 3e-10, timestep = 1.25e-23: cause unrecorded.


tran simulation(s) aborted
responsetimea1      =  8.535365e-11
responsetimea2      =  1.441496e-10
responsetimea3      =  2.143564e-10
responsetimea4      =  2.730724e-10

Error: measure  responsetimeb1  (WHEN) : out of interval
 meas tran responsetimeb1 when v(outb)=1.2 cross=1 failed!


Error: measure  responsetimeb2  (WHEN) : out of interval
 meas tran responsetimeb2 when v(outb)=1.2 cross=2 failed!


Error: measure  responsetimeb3  (WHEN) : out of interval
 meas tran responsetimeb3 when v(outb)=1.2 cross=3 failed!


Error: measure  responsetimeb4  (WHEN) : out of interval
 meas tran responsetimeb4 when v(outb)=1.2 cross=4 failed!

tdiff = 1.877188e-10
iavg                =  -2.527681e-04 from=  8.535365e-11 to=  2.800000e-10
iavg = -2.52768e-04
Note: No ".plot", ".print", or ".fourier" lines; no simulations run
