
Circuit: *pulseloop

Doing analysis at TEMP = 27.000000 and TNOM = 27.000000


Initial Transient Solution
--------------------------

Node                                   Voltage
----                                   -------
pos_supply                                 1.8
xpg1.reset_loop                            1.8
xpg1.critical_node                     1.73839
neg_supply                                   0
snoise                                       0
outb                               9.68599e-07
xpg1.invo                          2.52675e-06
xpg1.xe                                    1.8
outa                               9.68599e-07
xpg2.reset_loop                            1.8
xpg2.critical_node                         1.8
xpg2.bc                                    1.8
xpg2.invo                          9.68599e-07
xpg2.xe                                    1.8
v2#branch                                    0
v4#branch                          2.79167e-09
v3#branch                         -2.79167e-09

doAnalyses: TRAN:  Timestep too small; time = 7.74e-09, timestep = 1.25e-23: trouble with node "outb"


tran simulation(s) aborted
responsetimea1      =  2.897210e-10
responsetimea2      =  3.471554e-10
responsetimea3      =  7.853731e-10
responsetimea4      =  8.417463e-10
responsetimeb1      =  8.923187e-10
responsetimeb2      =  9.277856e-10
responsetimeb3      =  5.103601e-09
responsetimeb4      =  5.157509e-09
iavg_start_to_response_a1=  -1.644683e-05 from=  0.000000e+00 to=  2.910623e-10
iavg_start_to_response_b1=  -6.214312e-05 from=  0.000000e+00 to=  8.959190e-10
iavg_from_response_a1_to_response_a4=  -7.488797e-05 from=  2.897210e-10 to=  8.430000e-10
iavg_from_response_b1_to_response_b4=  -1.056865e-04 from=  8.923187e-10 to=  5.160000e-09
iavg_from_response_a1_to_response_b1=  0.000000e+00 from=  8.923187e-10 to=  8.959190e-10
Note: No ".plot", ".print", or ".fourier" lines; no simulations run
