
Circuit: *pulseloop

Doing analysis at TEMP = 27.000000 and TNOM = 27.000000


Initial Transient Solution
--------------------------

Node                                   Voltage
----                                   -------
pos_supply                                 1.8
xpg1.reset_loop                            1.8
xpg1.critical_node                     1.73839
neg_supply                                   0
snoise                                       0
outb                               9.68599e-07
xpg1.invo                          2.52675e-06
xpg1.xe                                    1.8
outa                               9.68599e-07
xpg2.reset_loop                            1.8
xpg2.critical_node                         1.8
xpg2.bc                                    1.8
xpg2.invo                          9.68599e-07
xpg2.xe                                    1.8
v2#branch                                    0
v4#branch                          2.79167e-09
v3#branch                         -2.79167e-09

doAnalyses: TRAN:  Timestep too small; time = 2.4e-09, timestep = 1.25e-23: cause unrecorded.


tran simulation(s) aborted
responsetimea1      =  9.420053e-11
responsetimea2      =  1.757473e-10
responsetimea3      =  2.877093e-10
responsetimea4      =  3.523831e-10
responsetimeb1      =  1.202800e-09
responsetimeb2      =  1.259485e-09

Error: measure  responsetimeb3  (WHEN) : out of interval
 meas tran responsetimeb3 when v(outb)=1.2 cross=3 failed!


Error: measure  responsetimeb4  (WHEN) : out of interval
 meas tran responsetimeb4 when v(outb)=1.2 cross=4 failed!

tdiff = 2.581826e-10
iavg                =  -4.976116e-05 from=  9.420053e-11 to=  3.600000e-10
iavg = -4.97612e-05
Note: No ".plot", ".print", or ".fourier" lines; no simulations run
