
Circuit: *pulseloop

Doing analysis at TEMP = 27.000000 and TNOM = 27.000000


Initial Transient Solution
--------------------------

Node                                   Voltage
----                                   -------
pos_supply                                 1.8
xpg1.reset_loop                            1.8
xpg1.critical_node                     1.73839
neg_supply                                   0
snoise                                       0
outb                               9.68599e-07
xpg1.invo                          2.52675e-06
xpg1.xe                                    1.8
outa                               9.68599e-07
xpg2.reset_loop                            1.8
xpg2.critical_node                         1.8
xpg2.bc                                    1.8
xpg2.invo                          9.68599e-07
xpg2.xe                                    1.8
v2#branch                                    0
v4#branch                          2.79167e-09
v3#branch                         -2.79167e-09



No. of Data Rows : 4581
responsetimea1      =  3.541042e-10
responsetimea2      =  4.057864e-10
responsetimea3      =  5.427135e-10
responsetimea4      =  6.038481e-10
responsetimeb1      =  4.563218e-09
responsetimeb2      =  4.614237e-09
responsetimeb3      =  6.179746e-09
responsetimeb4      =  6.218867e-09
tdiff = 2.497439e-10
iavg                =  -1.615558e-04 from=  3.541042e-10 to=  6.070000e-10
iavg = -1.61556e-04
Note: No ".plot", ".print", or ".fourier" lines; no simulations run
