
Circuit: *pulseloop

Doing analysis at TEMP = 27.000000 and TNOM = 27.000000


Initial Transient Solution
--------------------------

Node                                   Voltage
----                                   -------
xpg.1                                      1.8
xpg.reset_loop                             1.8
xpg.critical_node                          1.8
snoise2                                      0
xpg.ea                               0.0148394
xpg.da                               0.0486946
xpg.ca                                0.164238
snoise                                       0
xpg.invo                           9.68599e-07
xpg.xe                                     1.8
out                                9.68599e-07
v2#branch                                    0
v4#branch                                    0
v.xpg.v1#branch                   -1.01105e-09



No. of Data Rows : 2803

  Measurements for Transient Analysis

responsetime        =   2.16247e-10

Doing analysis at TEMP = 27.000000 and TNOM = 27.000000


  Measurements for Transient Analysis

responsetime        =   2.16247e-10

CPU time since last call: 9.131 seconds.

Total CPU time: 9.131 seconds.

Total DRAM available = 128860.191406 MB.
DRAM currently available = 57445.820312 MB.
Total ngspice program size = 35.661133 MB.
Resident set size = 21.231445 MB.
Shared ngspice pages = 2.089844 MB.
Text (code) pages = 1.597656 MB.
Stack = 0 bytes.
Library pages = 19.280273 MB.

