
Circuit: *pulseloop

Doing analysis at TEMP = 27.000000 and TNOM = 27.000000


Initial Transient Solution
--------------------------

Node                                   Voltage
----                                   -------
xpg.1                                      1.8
xpg.reset_loop                             1.8
xpg.critical_node                          1.8
snoise2                                      0
xpg.ea                               0.0148394
xpg.da                               0.0486946
xpg.ca                                0.164238
snoise                                       0
xpg.invo                           9.68599e-07
xpg.xe                                     1.8
out                                9.68599e-07
v2#branch                                    0
v4#branch                                    0
v.xpg.v1#branch                   -1.01105e-09

doAnalyses: TRAN:  Timestep too small; time = 6.6e-10, timestep = 1.25e-23: cause unrecorded.


tran simulation(s) aborted
Doing analysis at TEMP = 27.000000 and TNOM = 27.000000


  Measurements for Transient Analysis

responsetime        =   3.93461e-10

CPU time since last call: 8.343 seconds.

Total CPU time: 8.343 seconds.

Total DRAM available = 128860.191406 MB.
DRAM currently available = 57437.636719 MB.
Total ngspice program size = 35.486328 MB.
Resident set size = 21.036133 MB.
Shared ngspice pages = 2.015625 MB.
Text (code) pages = 1.597656 MB.
Stack = 0 bytes.
Library pages = 19.105469 MB.

