
Circuit: *pulseloop

Doing analysis at TEMP = 27.000000 and TNOM = 27.000000


Initial Transient Solution
--------------------------

Node                                   Voltage
----                                   -------
xpg1.1                                     1.8
xpg1.reset_loop                            1.8
xpg1.critical_node                     1.74017
snoise                                       0
outb                               9.68599e-07
xpg1.invo                          2.45983e-06
xpg1.xe                                    1.8
outa                               9.68599e-07
xpg2.1                                     1.8
xpg2.reset_loop                            1.8
xpg2.critical_node                         1.8
xpg2.invo                          9.68599e-07
xpg2.xe                                    1.8
v2#branch                                    0
v.xpg2.v1#branch                  -1.01106e-09
v.xpg1.v1#branch                  -1.74993e-09



No. of Data Rows : 5921

  Measurements for Transient Analysis

responsetimea       =   2.41243e-10
responsetimea       =   2.81553e-10
responsetimea       =   4.60011e-10
responsetimea       =   5.24496e-10
responsetimeb       =   2.43576e-09
responsetimeb       =   2.49624e-09
responsetimeb       =   2.67876e-09
responsetimeb       =   2.73470e-09

Doing analysis at TEMP = 27.000000 and TNOM = 27.000000


  Measurements for Transient Analysis

responsetimea       =   2.41243e-10
responsetimea       =   2.81553e-10
responsetimea       =   4.60011e-10
responsetimea       =   5.24496e-10
responsetimeb       =   2.43576e-09
responsetimeb       =   2.49624e-09
responsetimeb       =   2.67876e-09
responsetimeb       =   2.73470e-09

CPU time since last call: 9.730 seconds.

Total CPU time: 9.730 seconds.

Total DRAM available = 128860.140625 MB.
DRAM currently available = 121272.164062 MB.
Total ngspice program size = 43.471680 MB.
Resident set size = 29.001953 MB.
Shared ngspice pages = 2.061523 MB.
Text (code) pages = 1.597656 MB.
Stack = 0 bytes.
Library pages = 27.090820 MB.

