
Circuit: *pulseloop

Doing analysis at TEMP = 27.000000 and TNOM = 27.000000


Initial Transient Solution
--------------------------

Node                                   Voltage
----                                   -------
xpg1.1                                     1.8
xpg1.reset_loop                            1.8
xpg1.critical_node                     1.74017
snoise                                       0
outb                               9.68599e-07
xpg1.invo                          2.45983e-06
xpg1.xe                                    1.8
outa                               9.68599e-07
xpg2.1                                     1.8
xpg2.reset_loop                            1.8
xpg2.critical_node                         1.8
xpg2.invo                          9.68599e-07
xpg2.xe                                    1.8
v2#branch                                    0
v.xpg2.v1#branch                  -1.01106e-09
v.xpg1.v1#branch                  -1.74993e-09

doAnalyses: TRAN:  Timestep too small; time = 1.998e-08, timestep = 1.25e-23: cause unrecorded.


tran simulation(s) aborted
Doing analysis at TEMP = 27.000000 and TNOM = 27.000000


  Measurements for Transient Analysis

responsetimea       =   1.20884e-10
responsetimea       =   1.95153e-10
responsetimea       =   3.05941e-10
responsetimea       =   3.60961e-10
responsetimeb       =   1.69838e-10
responsetimeb       =   2.29708e-10
responsetimeb       =   5.39766e-10
responsetimeb       =   6.24097e-10

CPU time since last call: 10.417 seconds.

Total CPU time: 10.417 seconds.

Total DRAM available = 128860.140625 MB.
DRAM currently available = 121167.187500 MB.
Total ngspice program size = 43.547852 MB.
Resident set size = 29.117188 MB.
Shared ngspice pages = 2.047852 MB.
Text (code) pages = 1.597656 MB.
Stack = 0 bytes.
Library pages = 27.166992 MB.

