
Circuit: *pulseloop

Doing analysis at TEMP = 27.000000 and TNOM = 27.000000

Note: Starting dynamic gmin stepping
Trying gmin =   1.0000E-03 Note: One successful gmin step
Trying gmin =   1.0000E-04 Note: One successful gmin step
Trying gmin =   1.0000E-05 Warning: Further gmin increment
Trying gmin =   5.6234E-05 Note: One successful gmin step
Trying gmin =   2.3714E-05 Note: One successful gmin step
Trying gmin =   6.4938E-06 Note: One successful gmin step
Trying gmin =   9.3057E-07 Note: One successful gmin step
Trying gmin =   9.3057E-08 Note: One successful gmin step
Trying gmin =   9.3057E-09 Note: One successful gmin step
Trying gmin =   9.3057E-10 Note: One successful gmin step
Trying gmin =   9.3057E-11 Note: One successful gmin step
Trying gmin =   9.3057E-12 Note: One successful gmin step
Trying gmin =   2.9427E-12 Note: One successful gmin step
Trying gmin =   1.0000E-12 Note: One successful gmin step
Note: Dynamic gmin stepping completed

Initial Transient Solution
--------------------------

Node                                   Voltage
----                                   -------
pos_supply                                 1.8
xpg1.reset_loop                            1.8
xpg1.critical_node                     1.73839
neg_supply                                   0
snoise                                       0
outb                               9.68599e-07
xpg1.invo                          2.52787e-06
xpg1.xe                                    1.8
outa                               9.68599e-07
xpg2.reset_loop                            1.8
xpg2.critical_node                         1.8
xpg2.invo                          9.68599e-07
xpg2.xe                                    1.8
v2#branch                                    0
v4#branch                          2.79155e-09
v3#branch                         -2.79155e-09



No. of Data Rows : 28133

  Measurements for Transient Analysis

responsetimea1      =   2.14445e-10
responsetimea2      =   2.67714e-10
responsetimea3      =   7.19776e-10
responsetimea4      =   7.92415e-10
responsetimeb1      =   7.90533e-10
responsetimeb2      =   8.43778e-10
responsetimeb3      =   9.93022e-09
responsetimeb4      =   9.97072e-09
iavg                =  -4.382455e-05 from=  2.000000e-10 to=  5.010000e-10

Doing analysis at TEMP = 27.000000 and TNOM = 27.000000


  Measurements for Transient Analysis

responsetimea1      =   2.14445e-10
responsetimea2      =   2.67714e-10
responsetimea3      =   7.19776e-10
responsetimea4      =   7.92415e-10
responsetimeb1      =   7.90533e-10
responsetimeb2      =   8.43778e-10
responsetimeb3      =   9.93022e-09
responsetimeb4      =   9.97072e-09
iavg                =  -4.382455e-05 from=  2.000000e-10 to=  5.010000e-10

CPU time since last call: 15.891 seconds.

Total CPU time: 15.891 seconds.

Total DRAM available = 128860.140625 MB.
DRAM currently available = 120016.167969 MB.
Total ngspice program size = 48.011719 MB.
Resident set size = 33.587891 MB.
Shared ngspice pages = 2.068359 MB.
Text (code) pages = 1.597656 MB.
Stack = 0 bytes.
Library pages = 31.630859 MB.

