
Circuit: *pulseloop

Doing analysis at TEMP = 27.000000 and TNOM = 27.000000

Note: Starting dynamic gmin stepping
Trying gmin =   1.0000E-03 Note: One successful gmin step
Trying gmin =   1.0000E-04 Note: One successful gmin step
Trying gmin =   1.0000E-05 Warning: Further gmin increment
Trying gmin =   5.6234E-05 Note: One successful gmin step
Trying gmin =   2.3714E-05 Note: One successful gmin step
Trying gmin =   6.4938E-06 Note: One successful gmin step
Trying gmin =   9.3057E-07 Note: One successful gmin step
Trying gmin =   9.3057E-08 Note: One successful gmin step
Trying gmin =   9.3057E-09 Note: One successful gmin step
Trying gmin =   9.3057E-10 Note: One successful gmin step
Trying gmin =   9.3057E-11 Note: One successful gmin step
Trying gmin =   9.3057E-12 Note: One successful gmin step
Trying gmin =   2.9427E-12 Note: One successful gmin step
Trying gmin =   1.0000E-12 Note: One successful gmin step
Note: Dynamic gmin stepping completed

Initial Transient Solution
--------------------------

Node                                   Voltage
----                                   -------
pos_supply                                 1.8
xpg1.reset_loop                            1.8
xpg1.critical_node                     1.73839
neg_supply                                   0
snoise                                       0
outb                               9.68599e-07
xpg1.invo                          2.52787e-06
xpg1.xe                                    1.8
outa                               9.68599e-07
xpg2.reset_loop                            1.8
xpg2.critical_node                         1.8
xpg2.invo                          9.68599e-07
xpg2.xe                                    1.8
v2#branch                                    0
v4#branch                          2.79155e-09
v3#branch                         -2.79155e-09



No. of Data Rows : 6213

  Measurements for Transient Analysis

responsetimea1      =   7.20757e-11
responsetimea2      =   3.82981e-10
responsetimea3      =   4.60591e-10
responsetimea4      =   5.16277e-10
responsetimeb1      =   1.47679e-10
responsetimeb2      =   3.10805e-10
responsetimeb3      =   1.68095e-09
responsetimeb4      =   1.74742e-09
iavg                =  -1.885154e-04 from=  2.000000e-10 to=  5.010000e-10

Doing analysis at TEMP = 27.000000 and TNOM = 27.000000


  Measurements for Transient Analysis

responsetimea1      =   7.20757e-11
responsetimea2      =   3.82981e-10
responsetimea3      =   4.60591e-10
responsetimea4      =   5.16277e-10
responsetimeb1      =   1.47679e-10
responsetimeb2      =   3.10805e-10
responsetimeb3      =   1.68095e-09
responsetimeb4      =   1.74742e-09
iavg                =  -1.885154e-04 from=  2.000000e-10 to=  5.010000e-10

CPU time since last call: 10.288 seconds.

Total CPU time: 10.288 seconds.

Total DRAM available = 128860.140625 MB.
DRAM currently available = 120009.433594 MB.
Total ngspice program size = 43.540039 MB.
Resident set size = 29.120117 MB.
Shared ngspice pages = 2.049805 MB.
Text (code) pages = 1.597656 MB.
Stack = 0 bytes.
Library pages = 27.159180 MB.

