
Circuit: *pulseloop

Doing analysis at TEMP = 27.000000 and TNOM = 27.000000


Initial Transient Solution
--------------------------

Node                                   Voltage
----                                   -------
xpg1.1                                     1.8
xpg1.reset_loop                            1.8
xpg1.critical_node                     1.74017
snoise                                       0
outb                               9.68599e-07
xpg1.invo                          2.45983e-06
xpg1.xe                                    1.8
outa                               9.68599e-07
xpg2.1                                     1.8
xpg2.reset_loop                            1.8
xpg2.critical_node                         1.8
xpg2.invo                          9.68599e-07
xpg2.xe                                    1.8
v2#branch                                    0
v.xpg2.v1#branch                  -1.01106e-09
v.xpg1.v1#branch                  -1.74993e-09



No. of Data Rows : 28207

  Measurements for Transient Analysis

responsetimea       =   4.45537e-10
responsetimea       =   5.01062e-10
responsetimea       =   6.22133e-10
responsetimea       =   6.74346e-10
responsetimeb       =   9.48799e-09
responsetimeb       =   9.54140e-09
responsetimeb       =   4.11856e-08
responsetimeb       =   4.12405e-08

Doing analysis at TEMP = 27.000000 and TNOM = 27.000000


  Measurements for Transient Analysis

responsetimea       =   4.45537e-10
responsetimea       =   5.01062e-10
responsetimea       =   6.22133e-10
responsetimea       =   6.74346e-10
responsetimeb       =   9.48799e-09
responsetimeb       =   9.54140e-09
responsetimeb       =   4.11856e-08
responsetimeb       =   4.12405e-08

CPU time since last call: 15.372 seconds.

Total CPU time: 15.372 seconds.

Total DRAM available = 128860.140625 MB.
DRAM currently available = 121267.152344 MB.
Total ngspice program size = 47.918945 MB.
Resident set size = 33.427734 MB.
Shared ngspice pages = 2.041016 MB.
Text (code) pages = 1.597656 MB.
Stack = 0 bytes.
Library pages = 31.538086 MB.

