
Circuit: *pulseloop

Doing analysis at TEMP = 27.000000 and TNOM = 27.000000


Initial Transient Solution
--------------------------

Node                                   Voltage
----                                   -------
xpg1.1                                     1.8
xpg1.reset_loop                            1.8
xpg1.critical_node                     1.74017
snoise                                       0
outb                               9.68599e-07
xpg1.invo                          2.45983e-06
xpg1.xe                                    1.8
outa                               9.68599e-07
xpg2.1                                     1.8
xpg2.reset_loop                            1.8
xpg2.critical_node                         1.8
xpg2.invo                          9.68599e-07
xpg2.xe                                    1.8
v2#branch                                    0
v.xpg2.v1#branch                  -1.01106e-09
v.xpg1.v1#branch                  -1.74993e-09



No. of Data Rows : 6420

  Measurements for Transient Analysis

responsetimea       =   1.11736e-10
responsetimea       =   1.77630e-10
responsetimea       =   2.47981e-10
responsetimea       =   3.44297e-10
responsetimeb       =   2.37663e-10
responsetimeb       =   2.69770e-10
responsetimeb       =   3.28458e-10
responsetimeb       =   4.04408e-10

Doing analysis at TEMP = 27.000000 and TNOM = 27.000000


  Measurements for Transient Analysis

responsetimea       =   1.11736e-10
responsetimea       =   1.77630e-10
responsetimea       =   2.47981e-10
responsetimea       =   3.44297e-10
responsetimeb       =   2.37663e-10
responsetimeb       =   2.69770e-10
responsetimeb       =   3.28458e-10
responsetimeb       =   4.04408e-10

CPU time since last call: 10.151 seconds.

Total CPU time: 10.151 seconds.

Total DRAM available = 128860.140625 MB.
DRAM currently available = 121243.722656 MB.
Total ngspice program size = 43.547852 MB.
Resident set size = 29.104492 MB.
Shared ngspice pages = 2.033203 MB.
Text (code) pages = 1.597656 MB.
Stack = 0 bytes.
Library pages = 27.166992 MB.

