
Circuit: *pulseloop

Doing analysis at TEMP = 27.000000 and TNOM = 27.000000


Initial Transient Solution
--------------------------

Node                                   Voltage
----                                   -------
xpg1.1                                     1.8
xpg1.reset_loop                            1.8
xpg1.critical_node                     1.74017
snoise                                       0
outb                               9.68599e-07
xpg1.invo                          2.45983e-06
xpg1.xe                                    1.8
outa                               9.68599e-07
xpg2.1                                     1.8
xpg2.reset_loop                            1.8
xpg2.critical_node                         1.8
xpg2.invo                          9.68599e-07
xpg2.xe                                    1.8
v2#branch                                    0
v.xpg2.v1#branch                  -1.01106e-09
v.xpg1.v1#branch                  -1.74993e-09



No. of Data Rows : 6434

  Measurements for Transient Analysis

responsetimea       =   1.49328e-10
responsetimea       =   2.13351e-10
responsetimea       =   3.88041e-10
responsetimea       =   4.64484e-10
responsetimeb       =   2.24228e-10
responsetimeb       =   2.87287e-10
responsetimeb       =   4.60708e-10
responsetimeb       =   5.27618e-10

Doing analysis at TEMP = 27.000000 and TNOM = 27.000000


  Measurements for Transient Analysis

responsetimea       =   1.49328e-10
responsetimea       =   2.13351e-10
responsetimea       =   3.88041e-10
responsetimea       =   4.64484e-10
responsetimeb       =   2.24228e-10
responsetimeb       =   2.87287e-10
responsetimeb       =   4.60708e-10
responsetimeb       =   5.27618e-10

CPU time since last call: 9.977 seconds.

Total CPU time: 9.977 seconds.

Total DRAM available = 128860.140625 MB.
DRAM currently available = 121246.863281 MB.
Total ngspice program size = 43.547852 MB.
Resident set size = 29.135742 MB.
Shared ngspice pages = 2.065430 MB.
Text (code) pages = 1.597656 MB.
Stack = 0 bytes.
Library pages = 27.166992 MB.

