
Circuit: *pulseloop

Doing analysis at TEMP = 27.000000 and TNOM = 27.000000

Note: Starting dynamic gmin stepping
Trying gmin =   1.0000E-03 Note: One successful gmin step
Trying gmin =   1.0000E-04 Note: One successful gmin step
Trying gmin =   1.0000E-05 Warning: Further gmin increment
Trying gmin =   5.6234E-05 Note: One successful gmin step
Trying gmin =   2.3714E-05 Note: One successful gmin step
Trying gmin =   6.4938E-06 Note: One successful gmin step
Trying gmin =   9.3057E-07 Note: One successful gmin step
Trying gmin =   9.3057E-08 Note: One successful gmin step
Trying gmin =   9.3057E-09 Note: One successful gmin step
Trying gmin =   9.3057E-10 Note: One successful gmin step
Trying gmin =   9.3057E-11 Note: One successful gmin step
Trying gmin =   9.3057E-12 Note: One successful gmin step
Trying gmin =   2.9427E-12 Note: One successful gmin step
Trying gmin =   1.0000E-12 Note: One successful gmin step
Note: Dynamic gmin stepping completed

Initial Transient Solution
--------------------------

Node                                   Voltage
----                                   -------
pos_supply                                 1.8
xpg1.reset_loop                            1.8
xpg1.critical_node                     1.73839
neg_supply                                   0
snoise                                       0
outb                               9.68599e-07
xpg1.invo                          2.52787e-06
xpg1.xe                                    1.8
outa                               9.68599e-07
xpg2.reset_loop                            1.8
xpg2.critical_node                         1.8
xpg2.invo                          9.68599e-07
xpg2.xe                                    1.8
v2#branch                                    0
v4#branch                          2.79155e-09
v3#branch                         -2.79155e-09



No. of Data Rows : 1632
responsetimea1      =  1.129385e-10
responsetimea2      =  3.698326e-10
responsetimea3      =  4.917350e-10
responsetimea4      =  5.452253e-10
responsetimeb1      =  2.159591e-10
responsetimeb2      =  2.964787e-10
responsetimeb3      =  1.297943e-09
responsetimeb4      =  1.373920e-09
iavg_start_to_response_a1=  -1.238054e-04 from=  0.000000e+00 to=  1.162960e-10
iavg_start_to_response_b1=  -1.862150e-04 from=  0.000000e+00 to=  2.200000e-10
iavg_from_response_a1_to_response_a4=  -1.858976e-04 from=  1.129385e-10 to=  5.457305e-10
iavg_from_response_b1_to_response_b4=  -1.380696e-04 from=  2.159591e-10 to=  1.380000e-09
iavg_from_response_a1_to_response_b1=  0.000000e+00 from=  2.159591e-10 to=  2.200000e-10
Note: No ".plot", ".print", or ".fourier" lines; no simulations run
