
Circuit: *pulseloop

Doing analysis at TEMP = 27.000000 and TNOM = 27.000000


Initial Transient Solution
--------------------------

Node                                   Voltage
----                                   -------
xpg1.1                                     1.8
xpg1.reset_loop                            1.8
xpg1.critical_node                         1.8
outa                               9.68599e-07
snoise                                       0
xpg1.invo                          9.68599e-07
xpg1.xe                                    1.8
outb                               9.68599e-07
xpg2.1                                     1.8
xpg2.reset_loop                            1.8
xpg2.critical_node                     1.78087
xpg2.invo                          1.31489e-06
xpg2.xe                                    1.8
v2#branch                                    0
v.xpg2.v1#branch                  -1.18436e-09
v.xpg1.v1#branch                  -1.01106e-09



No. of Data Rows : 31157

  Measurements for Transient Analysis


Error: measure  responsetimea  (WHEN) : out of interval
 .measure tran responsetimea when v(outa)=1.2 cross=1 failed!


Error: measure  responsetimea  (WHEN) : out of interval
 .measure tran responsetimea when v(outa)=1.2 cross=2 failed!


Error: measure  responsetimea  (WHEN) : out of interval
 .measure tran responsetimea when v(outa)=1.2 cross=3 failed!


Error: measure  responsetimea  (WHEN) : out of interval
 .measure tran responsetimea when v(outa)=1.2 cross=4 failed!


Error: measure  responsetimeb  (WHEN) : out of interval
 .measure tran responsetimeb when v(outb)=1.2 cross=1 failed!


Error: measure  responsetimeb  (WHEN) : out of interval
 .measure tran responsetimeb when v(outb)=1.2 cross=2 failed!


Error: measure  responsetimeb  (WHEN) : out of interval
 .measure tran responsetimeb when v(outb)=1.2 cross=3 failed!


Error: measure  responsetimeb  (WHEN) : out of interval
 .measure tran responsetimeb when v(outb)=1.2 cross=4 failed!


Doing analysis at TEMP = 27.000000 and TNOM = 27.000000


  Measurements for Transient Analysis


Error: measure  responsetimea  (WHEN) : out of interval
 .measure tran responsetimea when v(outa)=1.2 cross=1 failed!


Error: measure  responsetimea  (WHEN) : out of interval
 .measure tran responsetimea when v(outa)=1.2 cross=2 failed!


Error: measure  responsetimea  (WHEN) : out of interval
 .measure tran responsetimea when v(outa)=1.2 cross=3 failed!


Error: measure  responsetimea  (WHEN) : out of interval
 .measure tran responsetimea when v(outa)=1.2 cross=4 failed!


Error: measure  responsetimeb  (WHEN) : out of interval
 .measure tran responsetimeb when v(outb)=1.2 cross=1 failed!


Error: measure  responsetimeb  (WHEN) : out of interval
 .measure tran responsetimeb when v(outb)=1.2 cross=2 failed!


Error: measure  responsetimeb  (WHEN) : out of interval
 .measure tran responsetimeb when v(outb)=1.2 cross=3 failed!


Error: measure  responsetimeb  (WHEN) : out of interval
 .measure tran responsetimeb when v(outb)=1.2 cross=4 failed!


CPU time since last call: 16.656 seconds.

Total CPU time: 16.656 seconds.

Total DRAM available = 128860.140625 MB.
DRAM currently available = 121922.542969 MB.
Total ngspice program size = 47.222656 MB.
Resident set size = 32.827148 MB.
Shared ngspice pages = 2.083984 MB.
Text (code) pages = 1.597656 MB.
Stack = 0 bytes.
Library pages = 30.841797 MB.

