
Circuit: *pulseloop

Doing analysis at TEMP = 27.000000 and TNOM = 27.000000


Initial Transient Solution
--------------------------

Node                                   Voltage
----                                   -------
pos_supply                                 1.8
xpg1.reset_loop                       0.863901
xpg1.critical_node                    0.863901
neg_supply                                   0
snoise                                       0
outb                                  0.863901
xpg1.invo                             0.863901
xpg1.xe                               0.863901
outa                                  0.863901
xpg2.reset_loop                       0.863901
xpg2.critical_node                    0.863901
xpg2.invo                             0.863901
xpg2.xe                               0.863901
v2#branch                                    0
v4#branch                          0.000118001
v3#branch                         -0.000118001



No. of Data Rows : 5125
responsetimea1      =  6.041558e-11
responsetimea2      =  1.003541e-10
responsetimea3      =  1.749050e-10
responsetimea4      =  2.427815e-10
responsetimeb1      =  9.691697e-11
responsetimeb2      =  1.686281e-10
responsetimeb3      =  2.581849e-10
responsetimeb4      =  3.158996e-10
tdiff = 1.823659e-10
iavg                =  -2.352309e-04 from=  6.041558e-11 to=  2.430000e-10
iavg = -2.35231e-04
Note: No ".plot", ".print", or ".fourier" lines; no simulations run
