
Circuit: *pulseloop

Doing analysis at TEMP = 27.000000 and TNOM = 27.000000


Initial Transient Solution
--------------------------

Node                                   Voltage
----                                   -------
pos_supply                                 1.8
xpg1.reset_loop                       0.863901
xpg1.critical_node                    0.863901
neg_supply                                   0
snoise                                       0
outb                                  0.863901
xpg1.invo                             0.863901
xpg1.xe                               0.863901
outa                                  0.863901
xpg2.reset_loop                       0.863901
xpg2.critical_node                    0.863901
xpg2.invo                             0.863901
xpg2.xe                               0.863901
v2#branch                                    0
v4#branch                          0.000118001
v3#branch                         -0.000118001



No. of Data Rows : 32192
responsetimea1      =  1.591152e-10
responsetimea2      =  2.261566e-10
responsetimea3      =  3.230212e-10
responsetimea4      =  3.830158e-10
responsetimeb1      =  1.122192e-10
responsetimeb2      =  1.542177e-10
responsetimeb3      =  2.398696e-10
responsetimeb4      =  2.983476e-10
tdiff = 2.239006e-10
iavg                =  -2.084330e-04 from=  1.591152e-10 to=  3.870000e-10
iavg = -2.08433e-04
Note: No ".plot", ".print", or ".fourier" lines; no simulations run
