
Circuit: *pulseloop

Doing analysis at TEMP = 27.000000 and TNOM = 27.000000


Initial Transient Solution
--------------------------

Node                                   Voltage
----                                   -------
pos_supply                                 1.8
xpg1.reset_loop                       0.863901
xpg1.critical_node                    0.863901
neg_supply                                   0
snoise                                       0
outb                                  0.863901
xpg1.invo                             0.863901
xpg1.xe                               0.863901
outa                                  0.863901
xpg2.reset_loop                       0.863901
xpg2.critical_node                    0.863901
xpg2.invo                             0.863901
xpg2.xe                               0.863901
v2#branch                                    0
v4#branch                          0.000118001
v3#branch                         -0.000118001



No. of Data Rows : 18527
responsetimea1      =  2.482713e-10
responsetimea2      =  3.077242e-10
responsetimea3      =  4.172738e-10
responsetimea4      =  4.762397e-10
responsetimeb1      =  1.712077e-10
responsetimeb2      =  2.217587e-10
responsetimeb3      =  3.317921e-10
responsetimeb4      =  3.891513e-10
iavg_start_to_response_a1=  -1.539625e-04 from=  0.000000e+00 to=  2.517210e-10
iavg_start_to_response_b1=  -1.313152e-04 from=  0.000000e+00 to=  1.731801e-10
iavg_from_response_a1_to_response_a4=  -1.996527e-04 from=  2.482713e-10 to=  4.773116e-10
iavg_from_response_b1_to_response_b4=  -1.992741e-04 from=  1.712077e-10 to=  3.950000e-10
iavg_from_response_a1_to_response_b1=  -2.025110e-04 from=  1.712077e-10 to=  2.517210e-10
Note: No ".plot", ".print", or ".fourier" lines; no simulations run
