
Circuit: *pulseloop

Doing analysis at TEMP = 27.000000 and TNOM = 27.000000


Initial Transient Solution
--------------------------

Node                                   Voltage
----                                   -------
pos_supply                                 1.8
xpg1.reset_loop                       0.863901
xpg1.critical_node                    0.863901
neg_supply                                   0
snoise                                       0
outb                                  0.863901
xpg1.invo                             0.863901
xpg1.xe                               0.863901
outa                                  0.863901
xpg2.reset_loop                       0.863901
xpg2.critical_node                    0.863901
xpg2.invo                             0.863901
xpg2.xe                               0.863901
v2#branch                                    0
v4#branch                          0.000118001
v3#branch                         -0.000118001



No. of Data Rows : 4065
responsetimea1      =  9.064887e-11
responsetimea2      =  1.156196e-10
responsetimea3      =  2.224819e-10
responsetimea4      =  2.828657e-10
responsetimeb1      =  1.436408e-10
responsetimeb2      =  2.039184e-10
responsetimeb3      =  3.056423e-10
responsetimeb4      =  3.633170e-10
iavg_start_to_response_a1=  -1.197047e-04 from=  0.000000e+00 to=  9.293744e-11
iavg_start_to_response_b1=  -1.550888e-04 from=  0.000000e+00 to=  1.459615e-10
iavg_from_response_a1_to_response_a4=  -2.081774e-04 from=  9.064887e-11 to=  2.830000e-10
iavg_from_response_b1_to_response_b4=  -2.035877e-04 from=  1.436408e-10 to=  3.665688e-10
iavg_from_response_a1_to_response_b1=  0.000000e+00 from=  1.436408e-10 to=  1.459615e-10
Note: No ".plot", ".print", or ".fourier" lines; no simulations run
