
Circuit: *pulseloop

Doing analysis at TEMP = 27.000000 and TNOM = 27.000000


Initial Transient Solution
--------------------------

Node                                   Voltage
----                                   -------
xpg1.1                                     1.8
xpg1.reset_loop                            1.8
xpg1.critical_node                     1.74017
snoise                                       0
outb                               9.68599e-07
xpg1.invo                          2.45983e-06
xpg1.xe                                    1.8
outa                               9.68599e-07
xpg2.1                                     1.8
xpg2.reset_loop                            1.8
xpg2.critical_node                     1.78087
xpg2.invo                          1.31489e-06
xpg2.xe                                    1.8
v2#branch                                    0
v.xpg2.v1#branch                  -1.18436e-09
v.xpg1.v1#branch                  -1.74993e-09

doAnalyses: TRAN:  Timestep too small; time = 2.496e-08, timestep = 1.25e-23: trouble with node "xpg1.reset_loop"


tran simulation(s) aborted
Doing analysis at TEMP = 27.000000 and TNOM = 27.000000


  Measurements for Transient Analysis

responsetimea       =   3.41144e-10
responsetimea       =   4.52435e-10
responsetimea       =   5.52602e-10
responsetimea       =   6.52744e-10
responsetimeb       =   4.20956e-10
responsetimeb       =   5.21803e-10
responsetimeb       =   6.35564e-10
responsetimeb       =   7.20898e-10

CPU time since last call: 10.658 seconds.

Total CPU time: 10.658 seconds.

Total DRAM available = 128860.140625 MB.
DRAM currently available = 122018.945312 MB.
Total ngspice program size = 43.033203 MB.
Resident set size = 28.581055 MB.
Shared ngspice pages = 2.027344 MB.
Text (code) pages = 1.597656 MB.
Stack = 0 bytes.
Library pages = 26.652344 MB.

