
Circuit: *pulseloop

Doing analysis at TEMP = 27.000000 and TNOM = 27.000000


Initial Transient Solution
--------------------------

Node                                   Voltage
----                                   -------
pos_supply                                 1.8
xpg1.reset_loop                       0.863901
xpg1.critical_node                    0.863901
neg_supply                                   0
snoise                                       0
outb                                  0.863901
xpg1.invo                             0.863901
xpg1.xe                               0.863901
outa                                  0.863901
xpg2.reset_loop                       0.863901
xpg2.critical_node                    0.863901
xpg2.invo                             0.863901
xpg2.xe                               0.863901
v2#branch                                    0
v4#branch                          0.000118001
v3#branch                         -0.000118001



No. of Data Rows : 8675
responsetimea1      =  6.227697e-10
responsetimea2      =  6.705636e-10
responsetimea3      =  7.599680e-10
responsetimea4      =  8.185676e-10
responsetimeb1      =  6.768067e-10
responsetimeb2      =  7.403343e-10
responsetimeb3      =  8.431852e-10
responsetimeb4      =  9.006454e-10
tdiff = 1.957979e-10
iavg                =  -2.238139e-04 from=  6.227697e-10 to=  8.200000e-10
iavg = -2.23814e-04
Note: No ".plot", ".print", or ".fourier" lines; no simulations run
