
Circuit: *pulseloop

Doing analysis at TEMP = 27.000000 and TNOM = 27.000000


Initial Transient Solution
--------------------------

Node                                   Voltage
----                                   -------
pos_supply                                 1.8
xpg1.reset_loop                       0.863901
xpg1.critical_node                    0.863901
neg_supply                                   0
snoise                                       0
outb                                  0.863901
xpg1.invo                             0.863901
xpg1.xe                               0.863901
outa                                  0.863901
xpg2.reset_loop                       0.863901
xpg2.critical_node                    0.863901
xpg2.invo                             0.863901
xpg2.xe                               0.863901
v2#branch                                    0
v4#branch                          0.000118001
v3#branch                         -0.000118001



No. of Data Rows : 8704
responsetimea1      =  1.380698e-10
responsetimea2      =  2.116321e-10
responsetimea3      =  2.973469e-10
responsetimea4      =  3.562828e-10
responsetimeb1      =  1.062111e-10
responsetimeb2      =  1.424979e-10
responsetimeb3      =  2.133850e-10
responsetimeb4      =  2.810818e-10
tdiff = 2.182130e-10
iavg                =  -2.234930e-04 from=  1.380698e-10 to=  3.600000e-10
iavg = -2.23493e-04
Note: No ".plot", ".print", or ".fourier" lines; no simulations run
