
Circuit: *pulseloop

Doing analysis at TEMP = 27.000000 and TNOM = 27.000000


Initial Transient Solution
--------------------------

Node                                   Voltage
----                                   -------
pos_supply                                 1.8
xpg1.reset_loop                       0.863901
xpg1.critical_node                    0.863901
neg_supply                                   0
snoise                                       0
outb                                  0.863901
xpg1.invo                             0.863901
xpg1.xe                               0.863901
outa                                  0.863901
xpg2.reset_loop                       0.863901
xpg2.critical_node                    0.863901
xpg2.invo                             0.863901
xpg2.xe                               0.863901
v2#branch                                    0
v4#branch                          0.000118001
v3#branch                         -0.000118001



No. of Data Rows : 6541
responsetimea1      =  6.850099e-11
responsetimea2      =  1.179512e-10
responsetimea3      =  1.693919e-10
responsetimea4      =  2.568948e-10
responsetimeb1      =  9.591283e-11
responsetimeb2      =  1.855726e-10
responsetimeb3      =  2.495796e-10
responsetimeb4      =  3.264170e-10
iavg_start_to_response_a1=  -1.314677e-04 from=  0.000000e+00 to=  7.150237e-11
iavg_start_to_response_b1=  -1.659179e-04 from=  0.000000e+00 to=  9.907768e-11
iavg_from_response_a1_to_response_a4=  -2.820465e-04 from=  6.850099e-11 to=  2.600000e-10
iavg_from_response_b1_to_response_b4=  -2.741945e-04 from=  9.591283e-11 to=  3.270000e-10
iavg_from_response_a1_to_response_b1=  0.000000e+00 from=  9.591283e-11 to=  9.907768e-11
Note: No ".plot", ".print", or ".fourier" lines; no simulations run
