
Circuit: *pulseloop

Doing analysis at TEMP = 27.000000 and TNOM = 27.000000


Initial Transient Solution
--------------------------

Node                                   Voltage
----                                   -------
pos_supply                                 1.8
xpg1.reset_loop                       0.863901
xpg1.critical_node                    0.863901
neg_supply                                   0
snoise                                       0
outb                                  0.863901
xpg1.invo                             0.863901
xpg1.xe                               0.863901
outa                                  0.863901
xpg2.reset_loop                       0.863901
xpg2.critical_node                    0.863901
xpg2.invo                             0.863901
xpg2.xe                               0.863901
v2#branch                                    0
v4#branch                          0.000118001
v3#branch                         -0.000118001



No. of Data Rows : 6580
responsetimea1      =  1.055043e-10
responsetimea2      =  2.111248e-10
responsetimea3      =  2.573340e-10
responsetimea4      =  3.525520e-10
responsetimeb1      =  7.050815e-11
responsetimeb2      =  1.343304e-10
responsetimeb3      =  1.808036e-10
responsetimeb4      =  2.816634e-10
iavg_start_to_response_a1=  -1.855511e-04 from=  0.000000e+00 to=  1.070000e-10
iavg_start_to_response_b1=  -1.426326e-04 from=  0.000000e+00 to=  7.591702e-11
iavg_from_response_a1_to_response_a4=  -2.887076e-04 from=  1.055043e-10 to=  3.535308e-10
iavg_from_response_b1_to_response_b4=  -2.962386e-04 from=  7.050815e-11 to=  2.830000e-10
iavg_from_response_a1_to_response_b1=  -2.819558e-04 from=  7.050815e-11 to=  1.070000e-10
Note: No ".plot", ".print", or ".fourier" lines; no simulations run
