
Circuit: *pulseloop

Doing analysis at TEMP = 27.000000 and TNOM = 27.000000


Initial Transient Solution
--------------------------

Node                                   Voltage
----                                   -------
pos_supply                                 1.8
xpg1.reset_loop                       0.863901
xpg1.critical_node                    0.863901
neg_supply                                   0
snoise                                       0
outb                                  0.863901
xpg1.invo                             0.863901
xpg1.xe                               0.863901
outa                                  0.863901
xpg2.reset_loop                       0.863901
xpg2.critical_node                    0.863901
xpg2.invo                             0.863901
xpg2.xe                               0.863901
v2#branch                                    0
v4#branch                          0.000118001
v3#branch                         -0.000118001



No. of Data Rows : 32158
responsetimea1      =  5.811994e-08
responsetimea2      =  5.817951e-08
responsetimea3      =  5.828720e-08
responsetimea4      =  5.834725e-08
responsetimeb1      =  5.803889e-08
responsetimeb2      =  5.807714e-08
responsetimeb3      =  5.820277e-08
responsetimeb4      =  5.826023e-08
iavg_start_to_response_a1=  -2.408005e-05 from=  0.000000e+00 to=  5.812000e-08
iavg_start_to_response_b1=  -2.386149e-05 from=  0.000000e+00 to=  5.804000e-08
iavg_from_response_a1_to_response_a4=  -2.001194e-04 from=  5.811994e-08 to=  5.835348e-08
iavg_from_response_b1_to_response_b4=  -1.937989e-04 from=  5.803889e-08 to=  5.826100e-08
iavg_from_response_a1_to_response_b1=  -1.859152e-04 from=  5.803889e-08 to=  5.812000e-08
Note: No ".plot", ".print", or ".fourier" lines; no simulations run
