
Circuit: *pulseloop

Doing analysis at TEMP = 27.000000 and TNOM = 27.000000


Initial Transient Solution
--------------------------

Node                                   Voltage
----                                   -------
pos_supply                                 1.8
xpg1.reset_loop                       0.863901
xpg1.critical_node                    0.863901
neg_supply                                   0
snoise                                       0
outb                                  0.863901
xpg1.invo                             0.863901
xpg1.xe                               0.863901
outa                                  0.863901
xpg2.reset_loop                       0.863901
xpg2.critical_node                    0.863901
xpg2.invo                             0.863901
xpg2.xe                               0.863901
v2#branch                                    0
v4#branch                          0.000118001
v3#branch                         -0.000118001



No. of Data Rows : 12230
responsetimea1      =  5.365107e-10
responsetimea2      =  5.717392e-10
responsetimea3      =  6.884876e-10
responsetimea4      =  7.475062e-10
responsetimeb1      =  6.034955e-10
responsetimeb2      =  6.622303e-10
responsetimeb3      =  7.720376e-10
responsetimeb4      =  8.292027e-10
tdiff = 2.109955e-10
iavg                =  -1.986437e-04 from=  5.365107e-10 to=  7.511067e-10
iavg = -1.98644e-04
Note: No ".plot", ".print", or ".fourier" lines; no simulations run
