
Circuit: *pulseloop

Doing analysis at TEMP = 27.000000 and TNOM = 27.000000


Initial Transient Solution
--------------------------

Node                                   Voltage
----                                   -------
pos_supply                                 1.8
xpg1.reset_loop                       0.863901
xpg1.critical_node                    0.863901
neg_supply                                   0
snoise                                       0
outb                                  0.863901
xpg1.invo                             0.863901
xpg1.xe                               0.863901
outa                                  0.863901
xpg2.reset_loop                       0.863901
xpg2.critical_node                    0.863901
xpg2.invo                             0.863901
xpg2.xe                               0.863901
v2#branch                                    0
v4#branch                          0.000118001
v3#branch                         -0.000118001



No. of Data Rows : 5070
responsetimea1      =  7.344975e-11
responsetimea2      =  9.901482e-11
responsetimea3      =  1.793004e-10
responsetimea4      =  2.424920e-10
responsetimeb1      =  1.070898e-10
responsetimeb2      =  1.714871e-10
responsetimeb3      =  2.620157e-10
responsetimeb4      =  3.194331e-10
iavg_start_to_response_a1=  -1.217383e-04 from=  0.000000e+00 to=  7.661016e-11
iavg_start_to_response_b1=  -1.608187e-04 from=  0.000000e+00 to=  1.115468e-10
iavg_from_response_a1_to_response_a4=  -2.323264e-04 from=  7.344975e-11 to=  2.430000e-10
iavg_from_response_b1_to_response_b4=  -2.214098e-04 from=  1.070898e-10 to=  3.200000e-10
iavg_from_response_a1_to_response_b1=  0.000000e+00 from=  1.070898e-10 to=  1.115468e-10
Note: No ".plot", ".print", or ".fourier" lines; no simulations run
