
Circuit: *pulseloop

Doing analysis at TEMP = 27.000000 and TNOM = 27.000000


Initial Transient Solution
--------------------------

Node                                   Voltage
----                                   -------
pos_supply                                 1.8
xpg1.reset_loop                       0.863901
xpg1.critical_node                    0.863901
neg_supply                                   0
snoise                                       0
outb                                  0.863901
xpg1.invo                             0.863901
xpg1.xe                               0.863901
outa                                  0.863901
xpg2.reset_loop                       0.863901
xpg2.critical_node                    0.863901
xpg2.invo                             0.863901
xpg2.xe                               0.863901
v2#branch                                    0
v4#branch                          0.000118001
v3#branch                         -0.000118001



No. of Data Rows : 72124
responsetimea1      =  4.323121e-10
responsetimea2      =  4.518472e-10
responsetimea3      =  6.060494e-10
responsetimea4      =  6.663497e-10
responsetimeb1      =  5.226487e-10
responsetimeb2      =  5.741617e-10
responsetimeb3      =  6.907102e-10
responsetimeb4      =  7.469790e-10
iavg_start_to_response_a1=  -7.759369e-05 from=  0.000000e+00 to=  4.350000e-10
iavg_start_to_response_b1=  -8.874816e-05 from=  0.000000e+00 to=  5.230000e-10
iavg_from_response_a1_to_response_a4=  -1.721251e-04 from=  4.323121e-10 to=  6.670000e-10
iavg_from_response_b1_to_response_b4=  -1.964382e-04 from=  5.226487e-10 to=  7.470000e-10
iavg_from_response_a1_to_response_b1=  0.000000e+00 from=  5.226487e-10 to=  5.230000e-10
Note: No ".plot", ".print", or ".fourier" lines; no simulations run
