
Circuit: *pulseloop

Doing analysis at TEMP = 27.000000 and TNOM = 27.000000


Initial Transient Solution
--------------------------

Node                                   Voltage
----                                   -------
pos_supply                                 1.8
xpg1.reset_loop                       0.863901
xpg1.critical_node                    0.863901
neg_supply                                   0
snoise                                       0
outb                                  0.863901
xpg1.invo                             0.863901
xpg1.xe                               0.863901
outa                                  0.863901
xpg2.reset_loop                       0.863901
xpg2.critical_node                    0.863901
xpg2.invo                             0.863901
xpg2.xe                               0.863901
v2#branch                                    0
v4#branch                          0.000118001
v3#branch                         -0.000118001



No. of Data Rows : 72124
responsetimea1      =  3.329523e-10
responsetimea2      =  3.763446e-10
responsetimea3      =  4.980660e-10
responsetimea4      =  5.571691e-10
responsetimeb1      =  2.319678e-10
responsetimeb2      =  2.380021e-10
responsetimeb3      =  4.135687e-10
responsetimeb4      =  4.703791e-10
tdiff = 2.242168e-10
iavg                =  -1.962086e-04 from=  3.329523e-10 to=  5.600000e-10
iavg = -1.96209e-04
Note: No ".plot", ".print", or ".fourier" lines; no simulations run
