
Circuit: *pulseloop

Doing analysis at TEMP = 27.000000 and TNOM = 27.000000


Initial Transient Solution
--------------------------

Node                                   Voltage
----                                   -------
xpg1.1                                     1.8
xpg1.reset_loop                            1.8
xpg1.critical_node                     1.74017
snoise                                       0
outb                               9.68599e-07
xpg1.invo                          2.45983e-06
xpg1.xe                                    1.8
outa                               9.68599e-07
xpg2.1                                     1.8
xpg2.reset_loop                            1.8
xpg2.critical_node                     1.78087
xpg2.invo                          1.31489e-06
xpg2.xe                                    1.8
v2#branch                                    0
v.xpg2.v1#branch                  -1.18436e-09
v.xpg1.v1#branch                  -1.74993e-09



No. of Data Rows : 27823

  Measurements for Transient Analysis

responsetimea       =   7.67765e-10
responsetimea       =   8.27663e-10
responsetimea       =   1.22082e-09
responsetimea       =   1.25954e-09
responsetimeb       =   8.48552e-10
responsetimeb       =   9.04680e-10
responsetimeb       =   1.30091e-09
responsetimeb       =   1.35864e-09

Doing analysis at TEMP = 27.000000 and TNOM = 27.000000


  Measurements for Transient Analysis

responsetimea       =   7.67765e-10
responsetimea       =   8.27663e-10
responsetimea       =   1.22082e-09
responsetimea       =   1.25954e-09
responsetimeb       =   8.48552e-10
responsetimeb       =   9.04680e-10
responsetimeb       =   1.30091e-09
responsetimeb       =   1.35864e-09

CPU time since last call: 14.691 seconds.

Total CPU time: 14.691 seconds.

Total DRAM available = 128860.140625 MB.
DRAM currently available = 122049.964844 MB.
Total ngspice program size = 46.993164 MB.
Resident set size = 32.533203 MB.
Shared ngspice pages = 2.047852 MB.
Text (code) pages = 1.597656 MB.
Stack = 0 bytes.
Library pages = 30.612305 MB.

