
Circuit: *pulseloop

Doing analysis at TEMP = 27.000000 and TNOM = 27.000000


Initial Transient Solution
--------------------------

Node                                   Voltage
----                                   -------
pos_supply                                 1.8
xpg1.reset_loop                       0.863901
xpg1.critical_node                    0.863901
neg_supply                                   0
snoise                                       0
outb                                  0.863901
xpg1.invo                             0.863901
xpg1.xe                               0.863901
outa                                  0.863901
xpg2.reset_loop                       0.863901
xpg2.critical_node                    0.863901
xpg2.invo                             0.863901
xpg2.xe                               0.863901
v2#branch                                    0
v4#branch                          0.000118001
v3#branch                         -0.000118001



No. of Data Rows : 12149
responsetimea1      =  1.102615e-10
responsetimea2      =  2.061453e-10
responsetimea3      =  2.581980e-10
responsetimea4      =  3.495412e-10
responsetimeb1      =  7.632924e-11
responsetimeb2      =  1.365008e-10
responsetimeb3      =  1.860330e-10
responsetimeb4      =  2.758467e-10
iavg_start_to_response_a1=  -1.760850e-04 from=  0.000000e+00 to=  1.137102e-10
iavg_start_to_response_b1=  -1.325697e-04 from=  0.000000e+00 to=  8.000000e-11
iavg_from_response_a1_to_response_a4=  -2.802697e-04 from=  1.102615e-10 to=  3.550180e-10
iavg_from_response_b1_to_response_b4=  -2.903251e-04 from=  7.632924e-11 to=  2.769143e-10
iavg_from_response_a1_to_response_b1=  -2.812595e-04 from=  7.632924e-11 to=  1.137102e-10
Note: No ".plot", ".print", or ".fourier" lines; no simulations run
