
Circuit: *pulseloop

Doing analysis at TEMP = 27.000000 and TNOM = 27.000000


Initial Transient Solution
--------------------------

Node                                   Voltage
----                                   -------
pos_supply                                 1.8
xpg1.reset_loop                       0.863901
xpg1.critical_node                    0.863901
neg_supply                                   0
snoise                                       0
outb                                  0.863901
xpg1.invo                             0.863901
xpg1.xe                               0.863901
outa                                  0.863901
xpg2.reset_loop                       0.863901
xpg2.critical_node                    0.863901
xpg2.invo                             0.863901
xpg2.xe                               0.863901
v2#branch                                    0
v4#branch                          0.000118001
v3#branch                         -0.000118001



No. of Data Rows : 8670
responsetimea1      =  2.043574e-10
responsetimea2      =  2.643272e-10
responsetimea3      =  3.732437e-10
responsetimea4      =  4.325648e-10
responsetimeb1      =  1.356146e-10
responsetimeb2      =  1.893127e-10
responsetimeb3      =  2.878102e-10
responsetimeb4      =  3.449917e-10
tdiff = 2.282074e-10
iavg                =  -1.994915e-04 from=  2.043574e-10 to=  4.328972e-10
iavg = -1.99491e-04
Note: No ".plot", ".print", or ".fourier" lines; no simulations run
