
Circuit: *pulseloop

Doing analysis at TEMP = 27.000000 and TNOM = 27.000000


Initial Transient Solution
--------------------------

Node                                   Voltage
----                                   -------
pos_supply                                 1.8
xpg1.reset_loop                       0.863901
xpg1.critical_node                    0.863901
neg_supply                                   0
snoise                                       0
outb                                  0.863901
xpg1.invo                             0.863901
xpg1.xe                               0.863901
outa                                  0.863901
xpg2.reset_loop                       0.863901
xpg2.critical_node                    0.863901
xpg2.invo                             0.863901
xpg2.xe                               0.863901
v2#branch                                    0
v4#branch                          0.000118001
v3#branch                         -0.000118001



No. of Data Rows : 72124
responsetimea1      =  2.863947e-10
responsetimea2      =  3.459488e-10
responsetimea3      =  4.553516e-10
responsetimea4      =  5.136284e-10
responsetimeb1      =  2.129928e-10
responsetimeb2      =  2.402740e-10
responsetimeb3      =  3.706307e-10
responsetimeb4      =  4.266698e-10
iavg_start_to_response_a1=  -1.238793e-04 from=  0.000000e+00 to=  2.870000e-10
iavg_start_to_response_b1=  -1.034591e-04 from=  0.000000e+00 to=  2.150000e-10
iavg_from_response_a1_to_response_a4=  -1.991719e-04 from=  2.863947e-10 to=  5.150000e-10
iavg_from_response_b1_to_response_b4=  -1.910762e-04 from=  2.129928e-10 to=  4.270000e-10
iavg_from_response_a1_to_response_b1=  -1.790534e-04 from=  2.129928e-10 to=  2.870000e-10
Note: No ".plot", ".print", or ".fourier" lines; no simulations run
