
Circuit: *pulseloop

Doing analysis at TEMP = 27.000000 and TNOM = 27.000000


Initial Transient Solution
--------------------------

Node                                   Voltage
----                                   -------
pos_supply                                 1.8
xpg1.reset_loop                       0.863901
xpg1.critical_node                    0.863901
neg_supply                                   0
snoise                                       0
outb                                  0.863901
xpg1.invo                             0.863901
xpg1.xe                               0.863901
outa                                  0.863901
xpg2.reset_loop                       0.863901
xpg2.critical_node                    0.863901
xpg2.invo                             0.863901
xpg2.xe                               0.863901
v2#branch                                    0
v4#branch                          0.000118001
v3#branch                         -0.000118001



No. of Data Rows : 8656
responsetimea1      =  1.076058e-10
responsetimea2      =  1.250317e-10
responsetimea3      =  2.487331e-10
responsetimea4      =  3.071055e-10
responsetimeb1      =  1.702800e-10
responsetimeb2      =  2.275869e-10
responsetimeb3      =  3.318290e-10
responsetimeb4      =  3.891759e-10
tdiff = 1.994997e-10
iavg                =  -1.984534e-04 from=  1.076058e-10 to=  3.142257e-10
iavg = -1.98453e-04
Note: No ".plot", ".print", or ".fourier" lines; no simulations run
