
Circuit: *pulseloop

Doing analysis at TEMP = 27.000000 and TNOM = 27.000000


Initial Transient Solution
--------------------------

Node                                   Voltage
----                                   -------
pos_supply                                 1.8
xpg1.reset_loop                       0.863901
xpg1.critical_node                    0.863901
neg_supply                                   0
snoise                                       0
outb                                  0.863901
xpg1.invo                             0.863901
xpg1.xe                               0.863901
outa                                  0.863901
xpg2.reset_loop                       0.863901
xpg2.critical_node                    0.863901
xpg2.invo                             0.863901
xpg2.xe                               0.863901
v2#branch                                    0
v4#branch                          0.000118001
v3#branch                         -0.000118001



No. of Data Rows : 72124
responsetimea1      =  2.442158e-10
responsetimea2      =  3.040757e-10
responsetimea3      =  4.118589e-10
responsetimea4      =  4.697500e-10
responsetimeb1      =  1.740028e-10
responsetimeb2      =  2.033309e-10
responsetimeb3      =  3.261061e-10
responsetimeb4      =  3.836875e-10
iavg_start_to_response_a1=  -1.367434e-04 from=  0.000000e+00 to=  2.470000e-10
iavg_start_to_response_b1=  -1.139236e-04 from=  0.000000e+00 to=  1.750000e-10
iavg_from_response_a1_to_response_a4=  -1.996991e-04 from=  2.442158e-10 to=  4.750000e-10
iavg_from_response_b1_to_response_b4=  -1.949571e-04 from=  1.740028e-10 to=  3.870000e-10
iavg_from_response_a1_to_response_b1=  -1.880140e-04 from=  1.740028e-10 to=  2.470000e-10
Note: No ".plot", ".print", or ".fourier" lines; no simulations run
