
Circuit: *pulseloop

Doing analysis at TEMP = 27.000000 and TNOM = 27.000000


Initial Transient Solution
--------------------------

Node                                   Voltage
----                                   -------
xpg1.1                                     1.8
xpg1.reset_loop                            1.8
xpg1.critical_node                     1.74017
snoise                                       0
outb                               9.68599e-07
xpg1.invo                          2.45983e-06
xpg1.xe                                    1.8
outa                               9.68599e-07
xpg2.1                                     1.8
xpg2.reset_loop                            1.8
xpg2.critical_node                     1.78087
xpg2.invo                          1.31489e-06
xpg2.xe                                    1.8
v2#branch                                    0
v.xpg2.v1#branch                  -1.18436e-09
v.xpg1.v1#branch                  -1.74993e-09

doAnalyses: TRAN:  Timestep too small; time = 3.318e-08, timestep = 1.25e-23: cause unrecorded.


tran simulation(s) aborted
Doing analysis at TEMP = 27.000000 and TNOM = 27.000000


  Measurements for Transient Analysis

responsetimea       =   1.34317e-10
responsetimea       =   2.14349e-10
responsetimea       =   3.64011e-10
responsetimea       =   4.29909e-10
responsetimeb       =   2.14949e-10
responsetimeb       =   2.82863e-10
responsetimeb       =   4.47483e-10
responsetimeb       =   5.04197e-10

CPU time since last call: 11.158 seconds.

Total CPU time: 11.158 seconds.

Total DRAM available = 128860.140625 MB.
DRAM currently available = 122024.386719 MB.
Total ngspice program size = 43.545898 MB.
Resident set size = 29.122070 MB.
Shared ngspice pages = 2.052734 MB.
Text (code) pages = 1.597656 MB.
Stack = 0 bytes.
Library pages = 27.165039 MB.

