
Circuit: *pulseloop

Doing analysis at TEMP = 27.000000 and TNOM = 27.000000


Initial Transient Solution
--------------------------

Node                                   Voltage
----                                   -------
pos_supply                                 1.8
xpg1.reset_loop                       0.863901
xpg1.critical_node                    0.863901
neg_supply                                   0
snoise                                       0
outb                                  0.863901
xpg1.invo                             0.863901
xpg1.xe                               0.863901
outa                                  0.863901
xpg2.reset_loop                       0.863901
xpg2.critical_node                    0.863901
xpg2.invo                             0.863901
xpg2.xe                               0.863901
v2#branch                                    0
v4#branch                          0.000118001
v3#branch                         -0.000118001



No. of Data Rows : 12226
responsetimea1      =  1.112992e-10
responsetimea2      =  1.897570e-10
responsetimea3      =  2.589758e-10
responsetimea4      =  3.302685e-10
responsetimeb1      =  8.426480e-11
responsetimeb2      =  1.214539e-10
responsetimeb3      =  1.773022e-10
responsetimeb4      =  2.600898e-10
iavg_start_to_response_a1=  -1.553785e-04 from=  0.000000e+00 to=  1.199227e-10
iavg_start_to_response_b1=  -1.247001e-04 from=  0.000000e+00 to=  8.658467e-11
iavg_from_response_a1_to_response_a4=  -2.482139e-04 from=  1.112992e-10 to=  3.311911e-10
iavg_from_response_b1_to_response_b4=  -2.652652e-04 from=  8.426480e-11 to=  2.610000e-10
iavg_from_response_a1_to_response_b1=  -2.570470e-04 from=  8.426480e-11 to=  1.199227e-10
Note: No ".plot", ".print", or ".fourier" lines; no simulations run
