
Circuit: *pulseloop

Doing analysis at TEMP = 27.000000 and TNOM = 27.000000


Initial Transient Solution
--------------------------

Node                                   Voltage
----                                   -------
xpg1.1                                     1.8
xpg1.reset_loop                            1.8
xpg1.critical_node                     1.74017
snoise                                       0
outb                               9.68599e-07
xpg1.invo                          2.45983e-06
xpg1.xe                                    1.8
outa                               9.68599e-07
xpg2.1                                     1.8
xpg2.reset_loop                            1.8
xpg2.critical_node                     1.78087
xpg2.invo                          1.31489e-06
xpg2.xe                                    1.8
v2#branch                                    0
v.xpg2.v1#branch                  -1.18436e-09
v.xpg1.v1#branch                  -1.74993e-09



No. of Data Rows : 26382

  Measurements for Transient Analysis

responsetimea       =   8.63121e-10
responsetimea       =   8.99588e-10
responsetimea       =   1.58258e-09
responsetimea       =   1.63874e-09
responsetimeb       =   9.41634e-10
responsetimeb       =   9.98693e-10
responsetimeb       =   1.66513e-09
responsetimeb       =   1.72241e-09

Doing analysis at TEMP = 27.000000 and TNOM = 27.000000


  Measurements for Transient Analysis

responsetimea       =   8.63121e-10
responsetimea       =   8.99588e-10
responsetimea       =   1.58258e-09
responsetimea       =   1.63874e-09
responsetimeb       =   9.41634e-10
responsetimeb       =   9.98693e-10
responsetimeb       =   1.66513e-09
responsetimeb       =   1.72241e-09

CPU time since last call: 14.224 seconds.

Total CPU time: 14.224 seconds.

Total DRAM available = 128860.140625 MB.
DRAM currently available = 122075.761719 MB.
Total ngspice program size = 46.727539 MB.
Resident set size = 32.273438 MB.
Shared ngspice pages = 2.044922 MB.
Text (code) pages = 1.597656 MB.
Stack = 0 bytes.
Library pages = 30.346680 MB.

