
Circuit: *pulseloop

Doing analysis at TEMP = 27.000000 and TNOM = 27.000000


Initial Transient Solution
--------------------------

Node                                   Voltage
----                                   -------
pos_supply                                 1.8
xpg1.reset_loop                       0.863901
xpg1.critical_node                    0.863901
neg_supply                                   0
snoise                                       0
outb                                  0.863901
xpg1.invo                             0.863901
xpg1.xe                               0.863901
outa                                  0.863901
xpg2.reset_loop                       0.863901
xpg2.critical_node                    0.863901
xpg2.invo                             0.863901
xpg2.xe                               0.863901
v2#branch                                    0
v4#branch                          0.000118001
v3#branch                         -0.000118001



No. of Data Rows : 72124
responsetimea1      =  2.780664e-10
responsetimea2      =  3.217526e-10
responsetimea3      =  4.398722e-10
responsetimea4      =  4.988773e-10
responsetimeb1      =  3.561164e-10
responsetimeb2      =  4.127578e-10
responsetimeb3      =  5.228035e-10
responsetimeb4      =  5.810306e-10
tdiff = 2.208109e-10
iavg                =  -1.970545e-04 from=  2.780664e-10 to=  5.000000e-10
iavg = -1.97055e-04
Note: No ".plot", ".print", or ".fourier" lines; no simulations run
