
Circuit: *pulseloop

Doing analysis at TEMP = 27.000000 and TNOM = 27.000000


Initial Transient Solution
--------------------------

Node                                   Voltage
----                                   -------
pos_supply                                 1.8
xpg1.reset_loop                       0.863901
xpg1.critical_node                    0.863901
neg_supply                                   0
snoise                                       0
outb                                  0.863901
xpg1.invo                             0.863901
xpg1.xe                               0.863901
outa                                  0.863901
xpg2.reset_loop                       0.863901
xpg2.critical_node                    0.863901
xpg2.invo                             0.863901
xpg2.xe                               0.863901
v2#branch                                    0
v4#branch                          0.000118001
v3#branch                         -0.000118001



No. of Data Rows : 6494
responsetimea1      =  7.835797e-11
responsetimea2      =  1.506010e-10
responsetimea3      =  2.142708e-10
responsetimea4      =  3.231523e-10
responsetimeb1      =  1.338862e-10
responsetimeb2      =  2.210784e-10
responsetimeb3      =  2.961718e-10
responsetimeb4      =  3.925698e-10
tdiff = 2.447943e-10
iavg                =  -2.749786e-04 from=  7.835797e-11 to=  3.255240e-10
iavg = -2.74979e-04
Note: No ".plot", ".print", or ".fourier" lines; no simulations run
