
Circuit: *pulseloop

Doing analysis at TEMP = 27.000000 and TNOM = 27.000000


Initial Transient Solution
--------------------------

Node                                   Voltage
----                                   -------
pos_supply                                 1.8
xpg1.reset_loop                       0.863901
xpg1.critical_node                    0.863901
neg_supply                                   0
snoise                                       0
outb                                  0.863901
xpg1.invo                             0.863901
xpg1.xe                               0.863901
outa                                  0.863901
xpg2.reset_loop                       0.863901
xpg2.critical_node                    0.863901
xpg2.invo                             0.863901
xpg2.xe                               0.863901
v2#branch                                    0
v4#branch                          0.000118001
v3#branch                         -0.000118001



No. of Data Rows : 72124
responsetimea1      =  1.122278e-10
responsetimea2      =  1.794329e-10
responsetimea3      =  2.507231e-10
responsetimea4      =  3.207004e-10
responsetimeb1      =  9.590405e-11
responsetimeb2      =  1.079249e-10
responsetimeb3      =  1.671828e-10
responsetimeb4      =  2.488545e-10
iavg_start_to_response_a1=  -1.348672e-04 from=  0.000000e+00 to=  1.150000e-10
iavg_start_to_response_b1=  -1.252225e-04 from=  0.000000e+00 to=  1.000000e-10
iavg_from_response_a1_to_response_a4=  -2.454381e-04 from=  1.122278e-10 to=  3.210000e-10
iavg_from_response_b1_to_response_b4=  -2.586117e-04 from=  9.590405e-11 to=  2.550000e-10
iavg_from_response_a1_to_response_b1=  -2.268836e-04 from=  9.590405e-11 to=  1.150000e-10
Note: No ".plot", ".print", or ".fourier" lines; no simulations run
