
Circuit: *pulseloop

Doing analysis at TEMP = 27.000000 and TNOM = 27.000000


Initial Transient Solution
--------------------------

Node                                   Voltage
----                                   -------
pos_supply                                 1.8
xpg1.reset_loop                       0.863901
xpg1.critical_node                    0.863901
neg_supply                                   0
snoise                                       0
outb                                  0.863901
xpg1.invo                             0.863901
xpg1.xe                               0.863901
outa                                  0.863901
xpg2.reset_loop                       0.863901
xpg2.critical_node                    0.863901
xpg2.invo                             0.863901
xpg2.xe                               0.863901
v2#branch                                    0
v4#branch                          0.000118001
v3#branch                         -0.000118001



No. of Data Rows : 8702
responsetimea1      =  1.021928e-10
responsetimea2      =  1.870659e-10
responsetimea3      =  2.589002e-10
responsetimea4      =  3.273038e-10
responsetimeb1      =  7.584379e-11
responsetimeb2      =  1.179212e-10
responsetimeb3      =  1.762443e-10
responsetimeb4      =  2.571411e-10
iavg_start_to_response_a1=  -1.733275e-04 from=  0.000000e+00 to=  1.030000e-10
iavg_start_to_response_b1=  -1.290201e-04 from=  0.000000e+00 to=  7.723204e-11
iavg_from_response_a1_to_response_a4=  -2.477965e-04 from=  1.021928e-10 to=  3.291121e-10
iavg_from_response_b1_to_response_b4=  -2.658236e-04 from=  7.584379e-11 to=  2.594087e-10
iavg_from_response_a1_to_response_b1=  -2.962737e-04 from=  7.584379e-11 to=  1.030000e-10
Note: No ".plot", ".print", or ".fourier" lines; no simulations run
