
Circuit: *pulseloop

Doing analysis at TEMP = 27.000000 and TNOM = 27.000000


Initial Transient Solution
--------------------------

Node                                   Voltage
----                                   -------
xpg1.1                                     1.8
xpg1.reset_loop                            1.8
xpg1.critical_node                     1.74017
snoise                                       0
outb                               9.68599e-07
xpg1.invo                          2.45983e-06
xpg1.xe                                    1.8
outa                               9.68599e-07
xpg2.1                                     1.8
xpg2.reset_loop                            1.8
xpg2.critical_node                     1.78087
xpg2.invo                          1.31489e-06
xpg2.xe                                    1.8
v2#branch                                    0
v.xpg2.v1#branch                  -1.18436e-09
v.xpg1.v1#branch                  -1.74993e-09



No. of Data Rows : 30192

  Measurements for Transient Analysis

responsetimea       =   9.67875e-11
responsetimea       =   1.45502e-10
responsetimea       =   2.85712e-10
responsetimea       =   3.46570e-10
responsetimeb       =   1.78108e-10
responsetimeb       =   2.33918e-10
responsetimeb       =   3.68512e-10
responsetimeb       =   4.24947e-10

Doing analysis at TEMP = 27.000000 and TNOM = 27.000000


  Measurements for Transient Analysis

responsetimea       =   9.67875e-11
responsetimea       =   1.45502e-10
responsetimea       =   2.85712e-10
responsetimea       =   3.46570e-10
responsetimeb       =   1.78108e-10
responsetimeb       =   2.33918e-10
responsetimeb       =   3.68512e-10
responsetimeb       =   4.24947e-10

CPU time since last call: 16.395 seconds.

Total CPU time: 16.395 seconds.

Total DRAM available = 128860.140625 MB.
DRAM currently available = 122030.910156 MB.
Total ngspice program size = 47.491211 MB.
Resident set size = 33.040039 MB.
Shared ngspice pages = 2.040039 MB.
Text (code) pages = 1.597656 MB.
Stack = 0 bytes.
Library pages = 31.110352 MB.

