
Circuit: *pulseloop

Doing analysis at TEMP = 27.000000 and TNOM = 27.000000


Initial Transient Solution
--------------------------

Node                                   Voltage
----                                   -------
pos_supply                                 1.8
xpg1.reset_loop                       0.863901
xpg1.critical_node                    0.863901
neg_supply                                   0
snoise                                       0
outb                                  0.863901
xpg1.invo                             0.863901
xpg1.xe                               0.863901
outa                                  0.863901
xpg2.reset_loop                       0.863901
xpg2.critical_node                    0.863901
xpg2.invo                             0.863901
xpg2.xe                               0.863901
v2#branch                                    0
v4#branch                          0.000118001
v3#branch                         -0.000118001



No. of Data Rows : 72124
responsetimea1      =  2.850179e-10
responsetimea2      =  3.404271e-10
responsetimea3      =  4.512663e-10
responsetimea4      =  5.093226e-10
responsetimeb1      =  2.086340e-10
responsetimeb2      =  2.235953e-10
responsetimeb3      =  3.655713e-10
responsetimeb4      =  4.235086e-10
tdiff = 2.243047e-10
iavg                =  -1.987755e-04 from=  2.850179e-10 to=  5.150000e-10
iavg = -1.98776e-04
Note: No ".plot", ".print", or ".fourier" lines; no simulations run
