
Circuit: *pulseloop

Doing analysis at TEMP = 27.000000 and TNOM = 27.000000


Initial Transient Solution
--------------------------

Node                                   Voltage
----                                   -------
pos_supply                                 1.8
xpg1.reset_loop                       0.863901
xpg1.critical_node                    0.863901
neg_supply                                   0
snoise                                       0
outb                                  0.863901
xpg1.invo                             0.863901
xpg1.xe                               0.863901
outa                                  0.863901
xpg2.reset_loop                       0.863901
xpg2.critical_node                    0.863901
xpg2.invo                             0.863901
xpg2.xe                               0.863901
v2#branch                                    0
v4#branch                          0.000118001
v3#branch                         -0.000118001



No. of Data Rows : 12201
responsetimea1      =  6.688880e-11
responsetimea2      =  1.032884e-10
responsetimea3      =  1.864483e-10
responsetimea4      =  2.472082e-10
responsetimeb1      =  1.089184e-10
responsetimeb2      =  1.735161e-10
responsetimeb3      =  2.707633e-10
responsetimeb4      =  3.275800e-10
iavg_start_to_response_a1=  -1.248073e-04 from=  0.000000e+00 to=  7.143739e-11
iavg_start_to_response_b1=  -1.717980e-04 from=  0.000000e+00 to=  1.127423e-10
iavg_from_response_a1_to_response_a4=  -2.230431e-04 from=  6.688880e-11 to=  2.526561e-10
iavg_from_response_b1_to_response_b4=  -2.064938e-04 from=  1.089184e-10 to=  3.278076e-10
iavg_from_response_a1_to_response_b1=  0.000000e+00 from=  1.089184e-10 to=  1.127423e-10
Note: No ".plot", ".print", or ".fourier" lines; no simulations run
