
Circuit: *pulseloop

Doing analysis at TEMP = 27.000000 and TNOM = 27.000000


Initial Transient Solution
--------------------------

Node                                   Voltage
----                                   -------
pos_supply                                 1.8
xpg1.reset_loop                       0.863901
xpg1.critical_node                    0.863901
neg_supply                                   0
snoise                                       0
outb                                  0.863901
xpg1.invo                             0.863901
xpg1.xe                               0.863901
outa                                  0.863901
xpg2.reset_loop                       0.863901
xpg2.critical_node                    0.863901
xpg2.invo                             0.863901
xpg2.xe                               0.863901
v2#branch                                    0
v4#branch                          0.000118001
v3#branch                         -0.000118001



No. of Data Rows : 18563
responsetimea1      =  1.105504e-10
responsetimea2      =  1.821882e-10
responsetimea3      =  2.488074e-10
responsetimea4      =  3.228777e-10
responsetimeb1      =  9.038886e-11
responsetimeb2      =  1.138848e-10
responsetimeb3      =  1.666313e-10
responsetimeb4      =  2.518692e-10
tdiff = 2.123273e-10
iavg                =  -2.522089e-04 from=  1.105504e-10 to=  3.230000e-10
iavg = -2.52209e-04
Note: No ".plot", ".print", or ".fourier" lines; no simulations run
