
Circuit: *pulseloop

Doing analysis at TEMP = 27.000000 and TNOM = 27.000000


Initial Transient Solution
--------------------------

Node                                   Voltage
----                                   -------
pos_supply                                 1.8
xpg1.reset_loop                       0.863901
xpg1.critical_node                    0.863901
neg_supply                                   0
snoise                                       0
outb                                  0.863901
xpg1.invo                             0.863901
xpg1.xe                               0.863901
outa                                  0.863901
xpg2.reset_loop                       0.863901
xpg2.critical_node                    0.863901
xpg2.invo                             0.863901
xpg2.xe                               0.863901
v2#branch                                    0
v4#branch                          0.000118001
v3#branch                         -0.000118001



No. of Data Rows : 3376
responsetimea1      =  5.605105e-11
responsetimea2      =  9.983889e-11
responsetimea3      =  1.677098e-10
responsetimea4      =  2.545338e-10
responsetimeb1      =  8.942365e-11
responsetimeb2      =  1.676454e-10
responsetimeb3      =  2.502825e-10
responsetimeb4      =  3.247767e-10
iavg_start_to_response_a1=  -1.304414e-04 from=  0.000000e+00 to=  6.000000e-11
iavg_start_to_response_b1=  -1.820954e-04 from=  0.000000e+00 to=  9.090773e-11
iavg_from_response_a1_to_response_a4=  -2.588833e-04 from=  5.605105e-11 to=  2.600000e-10
iavg_from_response_b1_to_response_b4=  -2.473224e-04 from=  8.942365e-11 to=  3.270000e-10
iavg_from_response_a1_to_response_b1=  0.000000e+00 from=  8.942365e-11 to=  9.090773e-11
Note: No ".plot", ".print", or ".fourier" lines; no simulations run
