
Circuit: *pulseloop

Doing analysis at TEMP = 27.000000 and TNOM = 27.000000


Initial Transient Solution
--------------------------

Node                                   Voltage
----                                   -------
pos_supply                                 1.8
xpg1.reset_loop                       0.863901
xpg1.critical_node                    0.863901
neg_supply                                   0
snoise                                       0
outb                                  0.863901
xpg1.invo                             0.863901
xpg1.xe                               0.863901
outa                                  0.863901
xpg2.reset_loop                       0.863901
xpg2.critical_node                    0.863901
xpg2.invo                             0.863901
xpg2.xe                               0.863901
v2#branch                                    0
v4#branch                          0.000118001
v3#branch                         -0.000118001



No. of Data Rows : 3386
responsetimea1      =  3.874515e-11
responsetimea2      =  1.025676e-10
responsetimea3      =  1.393058e-10
responsetimea4      =  2.434301e-10
responsetimeb1      =  6.605328e-11
responsetimeb2      =  1.726567e-10
responsetimeb3      =  2.152245e-10
responsetimeb4      =  3.127840e-10
tdiff = 2.046850e-10
iavg                =  -3.033142e-04 from=  3.874515e-11 to=  2.470000e-10
iavg = -3.03314e-04
Note: No ".plot", ".print", or ".fourier" lines; no simulations run
