
Circuit: *pulseloop

Doing analysis at TEMP = 27.000000 and TNOM = 27.000000


Initial Transient Solution
--------------------------

Node                                   Voltage
----                                   -------
pos_supply                                 1.8
xpg1.reset_loop                       0.863901
xpg1.critical_node                    0.863901
neg_supply                                   0
snoise                                       0
outb                                  0.863901
xpg1.invo                             0.863901
xpg1.xe                               0.863901
outa                                  0.863901
xpg2.reset_loop                       0.863901
xpg2.critical_node                    0.863901
xpg2.invo                             0.863901
xpg2.xe                               0.863901
v2#branch                                    0
v4#branch                          0.000118001
v3#branch                         -0.000118001



No. of Data Rows : 6514
responsetimea1      =  1.120807e-10
responsetimea2      =  1.974571e-10
responsetimea3      =  2.722480e-10
responsetimea4      =  3.383637e-10
responsetimeb1      =  7.895815e-11
responsetimeb2      =  1.272874e-10
responsetimeb3      =  1.887663e-10
responsetimeb4      =  2.668190e-10
tdiff = 2.262830e-10
iavg                =  -2.356235e-04 from=  1.120807e-10 to=  3.400000e-10
iavg = -2.35623e-04
Note: No ".plot", ".print", or ".fourier" lines; no simulations run
