
Circuit: *pulseloop

Doing analysis at TEMP = 27.000000 and TNOM = 27.000000


Initial Transient Solution
--------------------------

Node                                   Voltage
----                                   -------
pos_supply                                 1.8
xpg1.reset_loop                       0.863901
xpg1.critical_node                    0.863901
neg_supply                                   0
snoise                                       0
outb                                  0.863901
xpg1.invo                             0.863901
xpg1.xe                               0.863901
outa                                  0.863901
xpg2.reset_loop                       0.863901
xpg2.critical_node                    0.863901
xpg2.invo                             0.863901
xpg2.xe                               0.863901
v2#branch                                    0
v4#branch                          0.000118001
v3#branch                         -0.000118001



No. of Data Rows : 8646
responsetimea1      =  5.896836e-11
responsetimea2      =  7.123512e-11
responsetimea3      =  1.124421e-10
responsetimea4      =  2.120513e-10
responsetimeb1      =  7.277955e-11
responsetimeb2      =  1.422887e-10
responsetimeb3      =  1.882009e-10
responsetimeb4      =  2.823387e-10
iavg_start_to_response_a1=  -1.302598e-04 from=  0.000000e+00 to=  6.000000e-11
iavg_start_to_response_b1=  -1.464995e-04 from=  0.000000e+00 to=  7.868615e-11
iavg_from_response_a1_to_response_a4=  -2.885629e-04 from=  5.896836e-11 to=  2.137240e-10
iavg_from_response_b1_to_response_b4=  -2.854530e-04 from=  7.277955e-11 to=  2.830000e-10
iavg_from_response_a1_to_response_b1=  0.000000e+00 from=  7.277955e-11 to=  7.868615e-11
Note: No ".plot", ".print", or ".fourier" lines; no simulations run
