
Circuit: *pulseloop

Doing analysis at TEMP = 27.000000 and TNOM = 27.000000


Initial Transient Solution
--------------------------

Node                                   Voltage
----                                   -------
pos_supply                                 1.8
xpg1.reset_loop                       0.863901
xpg1.critical_node                    0.863901
neg_supply                                   0
snoise                                       0
outb                                  0.863901
xpg1.invo                             0.863901
xpg1.xe                               0.863901
outa                                  0.863901
xpg2.reset_loop                       0.863901
xpg2.critical_node                    0.863901
xpg2.invo                             0.863901
xpg2.xe                               0.863901
v2#branch                                    0
v4#branch                          0.000118001
v3#branch                         -0.000118001



No. of Data Rows : 2417
responsetimea1      =  5.361220e-11
responsetimea2      =  1.000724e-10
responsetimea3      =  1.624649e-10
responsetimea4      =  2.629056e-10
responsetimeb1      =  8.528603e-11
responsetimeb2      =  1.677199e-10
responsetimeb3      =  2.439301e-10
responsetimeb4      =  3.321294e-10
tdiff = 2.092934e-10
iavg                =  -2.779173e-04 from=  5.361220e-11 to=  2.630000e-10
iavg = -2.77917e-04
Note: No ".plot", ".print", or ".fourier" lines; no simulations run
