
Circuit: *pulseloop

Doing analysis at TEMP = 27.000000 and TNOM = 27.000000


Initial Transient Solution
--------------------------

Node                                   Voltage
----                                   -------
pos_supply                                 1.8
xpg1.reset_loop                       0.863901
xpg1.critical_node                    0.863901
neg_supply                                   0
snoise                                       0
outb                                  0.863901
xpg1.invo                             0.863901
xpg1.xe                               0.863901
outa                                  0.863901
xpg2.reset_loop                       0.863901
xpg2.critical_node                    0.863901
xpg2.invo                             0.863901
xpg2.xe                               0.863901
v2#branch                                    0
v4#branch                          0.000118001
v3#branch                         -0.000118001



No. of Data Rows : 8720
responsetimea1      =  1.054671e-10
responsetimea2      =  1.928807e-10
responsetimea3      =  2.497951e-10
responsetimea4      =  3.344800e-10
responsetimeb1      =  7.573107e-11
responsetimeb2      =  1.230137e-10
responsetimeb3      =  1.810043e-10
responsetimeb4      =  2.627420e-10
iavg_start_to_response_a1=  -1.664860e-04 from=  0.000000e+00 to=  1.070000e-10
iavg_start_to_response_b1=  -1.276461e-04 from=  0.000000e+00 to=  8.000000e-11
iavg_from_response_a1_to_response_a4=  -2.708830e-04 from=  1.054671e-10 to=  3.400000e-10
iavg_from_response_b1_to_response_b4=  -2.849899e-04 from=  7.573107e-11 to=  2.648018e-10
iavg_from_response_a1_to_response_b1=  -2.818193e-04 from=  7.573107e-11 to=  1.070000e-10
Note: No ".plot", ".print", or ".fourier" lines; no simulations run
