
Circuit: *pulseloop

Doing analysis at TEMP = 27.000000 and TNOM = 27.000000


Initial Transient Solution
--------------------------

Node                                   Voltage
----                                   -------
pos_supply                                 1.8
xpg1.reset_loop                       0.863901
xpg1.critical_node                    0.863901
neg_supply                                   0
snoise                                       0
outb                                  0.863901
xpg1.invo                             0.863901
xpg1.xe                               0.863901
outa                                  0.863901
xpg2.reset_loop                       0.863901
xpg2.critical_node                    0.863901
xpg2.invo                             0.863901
xpg2.xe                               0.863901
v2#branch                                    0
v4#branch                          0.000118001
v3#branch                         -0.000118001



No. of Data Rows : 1602
responsetimea1      =  8.164873e-11
responsetimea2      =  1.383073e-10
responsetimea3      =  2.150876e-10
responsetimea4      =  2.807718e-10
responsetimeb1      =  1.361750e-10
responsetimeb2      =  2.072563e-10
responsetimeb3      =  2.983759e-10
responsetimeb4      =  3.554334e-10
tdiff = 1.991231e-10
iavg                =  -2.416739e-04 from=  8.164873e-11 to=  2.810000e-10
iavg = -2.41674e-04
Note: No ".plot", ".print", or ".fourier" lines; no simulations run
