
Circuit: *pulseloop

Doing analysis at TEMP = 27.000000 and TNOM = 27.000000


Initial Transient Solution
--------------------------

Node                                   Voltage
----                                   -------
pos_supply                                 1.8
xpg1.reset_loop                       0.863901
xpg1.critical_node                    0.863901
neg_supply                                   0
snoise                                       0
outb                                  0.863901
xpg1.invo                             0.863901
xpg1.xe                               0.863901
outa                                  0.863901
xpg2.reset_loop                       0.863901
xpg2.critical_node                    0.863901
xpg2.invo                             0.863901
xpg2.xe                               0.863901
v2#branch                                    0
v4#branch                          0.000118001
v3#branch                         -0.000118001



No. of Data Rows : 2891
responsetimea1      =  4.695348e-11
responsetimea2      =  9.599978e-11
responsetimea3      =  1.523678e-10
responsetimea4      =  2.357502e-10
responsetimeb1      =  7.478092e-11
responsetimeb2      =  1.646340e-10
responsetimeb3      =  2.330597e-10
responsetimeb4      =  3.054837e-10
iavg_start_to_response_a1=  -1.385450e-04 from=  0.000000e+00 to=  4.808322e-11
iavg_start_to_response_b1=  -1.875377e-04 from=  0.000000e+00 to=  7.825288e-11
iavg_from_response_a1_to_response_a4=  -2.738043e-04 from=  4.695348e-11 to=  2.400000e-10
iavg_from_response_b1_to_response_b4=  -2.555797e-04 from=  7.478092e-11 to=  3.055516e-10
iavg_from_response_a1_to_response_b1=  0.000000e+00 from=  7.478092e-11 to=  7.825288e-11
Note: No ".plot", ".print", or ".fourier" lines; no simulations run
