
Circuit: *pulseloop

Doing analysis at TEMP = 27.000000 and TNOM = 27.000000


Initial Transient Solution
--------------------------

Node                                   Voltage
----                                   -------
xpg1.1                                     1.8
xpg1.reset_loop                            1.8
xpg1.critical_node                     1.74017
snoise                                       0
outb                               9.68599e-07
xpg1.invo                          2.45983e-06
xpg1.xe                                    1.8
outa                               9.68599e-07
xpg2.1                                     1.8
xpg2.reset_loop                            1.8
xpg2.critical_node                     1.78087
xpg2.invo                          1.31489e-06
xpg2.xe                                    1.8
v2#branch                                    0
v.xpg2.v1#branch                  -1.18436e-09
v.xpg1.v1#branch                  -1.74993e-09

doAnalyses: TRAN:  Timestep too small; time = 8.378e-08, timestep = 1.25e-23: cause unrecorded.


tran simulation(s) aborted
Doing analysis at TEMP = 27.000000 and TNOM = 27.000000


  Measurements for Transient Analysis

responsetimea       =   6.85986e-11
responsetimea       =   1.31853e-10
responsetimea       =   1.89550e-10
responsetimea       =   2.28768e-10
responsetimeb       =   1.50776e-10
responsetimeb       =   2.06377e-10
responsetimeb       =   2.66313e-10
responsetimeb       =   3.25664e-10

CPU time since last call: 15.707 seconds.

Total CPU time: 15.707 seconds.

Total DRAM available = 128860.140625 MB.
DRAM currently available = 122009.777344 MB.
Total ngspice program size = 46.724609 MB.
Resident set size = 32.300781 MB.
Shared ngspice pages = 2.072266 MB.
Text (code) pages = 1.597656 MB.
Stack = 0 bytes.
Library pages = 30.343750 MB.

