
Circuit: *pulseloop

Doing analysis at TEMP = 27.000000 and TNOM = 27.000000


Initial Transient Solution
--------------------------

Node                                   Voltage
----                                   -------
pos_supply                                 1.8
xpg1.reset_loop                       0.863901
xpg1.critical_node                    0.863901
neg_supply                                   0
snoise                                       0
outb                                  0.863901
xpg1.invo                             0.863901
xpg1.xe                               0.863901
outa                                  0.863901
xpg2.reset_loop                       0.863901
xpg2.critical_node                    0.863901
xpg2.invo                             0.863901
xpg2.xe                               0.863901
v2#branch                                    0
v4#branch                          0.000118001
v3#branch                         -0.000118001



No. of Data Rows : 18484
responsetimea1      =  2.055891e-10
responsetimea2      =  2.652179e-10
responsetimea3      =  3.733655e-10
responsetimea4      =  4.314863e-10
responsetimeb1      =  1.360393e-10
responsetimeb2      =  1.823100e-10
responsetimeb3      =  2.889620e-10
responsetimeb4      =  3.468097e-10
iavg_start_to_response_a1=  -1.609678e-04 from=  0.000000e+00 to=  2.100353e-10
iavg_start_to_response_b1=  -1.282233e-04 from=  0.000000e+00 to=  1.365721e-10
iavg_from_response_a1_to_response_a4=  -1.989898e-04 from=  2.055891e-10 to=  4.316236e-10
iavg_from_response_b1_to_response_b4=  -2.022597e-04 from=  1.360393e-10 to=  3.470000e-10
iavg_from_response_a1_to_response_b1=  -2.152803e-04 from=  1.360393e-10 to=  2.100353e-10
Note: No ".plot", ".print", or ".fourier" lines; no simulations run
