
Circuit: *pulseloop

Doing analysis at TEMP = 27.000000 and TNOM = 27.000000


Initial Transient Solution
--------------------------

Node                                   Voltage
----                                   -------
pos_supply                                 1.8
xpg1.reset_loop                       0.863901
xpg1.critical_node                    0.863901
neg_supply                                   0
snoise                                       0
outb                                  0.863901
xpg1.invo                             0.863901
xpg1.xe                               0.863901
outa                                  0.863901
xpg2.reset_loop                       0.863901
xpg2.critical_node                    0.863901
xpg2.invo                             0.863901
xpg2.xe                               0.863901
v2#branch                                    0
v4#branch                          0.000118001
v3#branch                         -0.000118001



No. of Data Rows : 3411
responsetimea1      =  6.199674e-11
responsetimea2      =  1.200827e-10
responsetimea3      =  1.884447e-10
responsetimea4      =  2.660474e-10
responsetimeb1      =  1.069527e-10
responsetimeb2      =  1.889604e-10
responsetimeb3      =  2.711417e-10
responsetimeb4      =  3.356080e-10
tdiff = 2.040507e-10
iavg                =  -2.548245e-04 from=  6.199674e-11 to=  2.661709e-10
iavg = -2.54824e-04
Note: No ".plot", ".print", or ".fourier" lines; no simulations run
