
Circuit: *pulseloop

Doing analysis at TEMP = 27.000000 and TNOM = 27.000000


Initial Transient Solution
--------------------------

Node                                   Voltage
----                                   -------
xpg1.1                                     1.8
xpg1.reset_loop                            1.8
xpg1.critical_node                     1.74017
snoise                                       0
outb                               9.68599e-07
xpg1.invo                          2.45983e-06
xpg1.xe                                    1.8
outa                               9.68599e-07
xpg2.1                                     1.8
xpg2.reset_loop                            1.8
xpg2.critical_node                     1.78087
xpg2.invo                          1.31489e-06
xpg2.xe                                    1.8
v2#branch                                    0
v.xpg2.v1#branch                  -1.18436e-09
v.xpg1.v1#branch                  -1.74993e-09



No. of Data Rows : 31194

  Measurements for Transient Analysis

responsetimea       =   1.95705e-10
responsetimea       =   2.95454e-10
responsetimea       =   4.01203e-10
responsetimea       =   4.94416e-10
responsetimeb       =   2.76129e-10
responsetimeb       =   3.64385e-10
responsetimeb       =   4.82714e-10
responsetimeb       =   5.62533e-10

Doing analysis at TEMP = 27.000000 and TNOM = 27.000000


  Measurements for Transient Analysis

responsetimea       =   1.95705e-10
responsetimea       =   2.95454e-10
responsetimea       =   4.01203e-10
responsetimea       =   4.94416e-10
responsetimeb       =   2.76129e-10
responsetimeb       =   3.64385e-10
responsetimeb       =   4.82714e-10
responsetimeb       =   5.62533e-10

CPU time since last call: 16.563 seconds.

Total CPU time: 16.563 seconds.

Total DRAM available = 128860.140625 MB.
DRAM currently available = 122015.207031 MB.
Total ngspice program size = 47.627930 MB.
Resident set size = 33.182617 MB.
Shared ngspice pages = 2.052734 MB.
Text (code) pages = 1.597656 MB.
Stack = 0 bytes.
Library pages = 31.247070 MB.

