
Circuit: *pulseloop

Doing analysis at TEMP = 27.000000 and TNOM = 27.000000


Initial Transient Solution
--------------------------

Node                                   Voltage
----                                   -------
pos_supply                                 1.8
xpg1.reset_loop                       0.863901
xpg1.critical_node                    0.863901
neg_supply                                   0
snoise                                       0
outb                                  0.863901
xpg1.invo                             0.863901
xpg1.xe                               0.863901
outa                                  0.863901
xpg2.reset_loop                       0.863901
xpg2.critical_node                    0.863901
xpg2.invo                             0.863901
xpg2.xe                               0.863901
v2#branch                                    0
v4#branch                          0.000118001
v3#branch                         -0.000118001



No. of Data Rows : 18498
responsetimea1      =  1.262865e-10
responsetimea2      =  1.544190e-10
responsetimea3      =  2.720356e-10
responsetimea4      =  3.310505e-10
responsetimeb1      =  1.908070e-10
responsetimeb2      =  2.480482e-10
responsetimeb3      =  3.557415e-10
responsetimeb4      =  4.111107e-10
iavg_start_to_response_a1=  -1.199787e-04 from=  0.000000e+00 to=  1.268535e-10
iavg_start_to_response_b1=  -1.465326e-04 from=  0.000000e+00 to=  1.937150e-10
iavg_from_response_a1_to_response_a4=  -1.990829e-04 from=  1.262865e-10 to=  3.312110e-10
iavg_from_response_b1_to_response_b4=  -2.004824e-04 from=  1.908070e-10 to=  4.146534e-10
iavg_from_response_a1_to_response_b1=  0.000000e+00 from=  1.908070e-10 to=  1.937150e-10
Note: No ".plot", ".print", or ".fourier" lines; no simulations run
