
Circuit: *pulseloop

Doing analysis at TEMP = 27.000000 and TNOM = 27.000000


Initial Transient Solution
--------------------------

Node                                   Voltage
----                                   -------
pos_supply                                 1.8
xpg1.reset_loop                       0.863901
xpg1.critical_node                    0.863901
neg_supply                                   0
snoise                                       0
outb                                  0.863901
xpg1.invo                             0.863901
xpg1.xe                               0.863901
outa                                  0.863901
xpg2.reset_loop                       0.863901
xpg2.critical_node                    0.863901
xpg2.invo                             0.863901
xpg2.xe                               0.863901
v2#branch                                    0
v4#branch                          0.000118001
v3#branch                         -0.000118001



No. of Data Rows : 3377
responsetimea1      =  4.016344e-11
responsetimea2      =  1.000471e-10
responsetimea3      =  1.419989e-10
responsetimea4      =  2.414666e-10
responsetimeb1      =  6.683855e-11
responsetimeb2      =  1.682856e-10
responsetimeb3      =  2.194518e-10
responsetimeb4      =  3.113239e-10
iavg_start_to_response_a1=  -1.586492e-04 from=  0.000000e+00 to=  4.100000e-11
iavg_start_to_response_b1=  -2.027284e-04 from=  0.000000e+00 to=  6.700000e-11
iavg_from_response_a1_to_response_a4=  -2.952351e-04 from=  4.016344e-11 to=  2.430000e-10
iavg_from_response_b1_to_response_b4=  -2.859797e-04 from=  6.683855e-11 to=  3.174369e-10
iavg_from_response_a1_to_response_b1=  0.000000e+00 from=  6.683855e-11 to=  6.700000e-11
Note: No ".plot", ".print", or ".fourier" lines; no simulations run
