
Circuit: *pulseloop

Doing analysis at TEMP = 27.000000 and TNOM = 27.000000


Initial Transient Solution
--------------------------

Node                                   Voltage
----                                   -------
pos_supply                                 1.8
xpg1.reset_loop                       0.863901
xpg1.critical_node                    0.863901
neg_supply                                   0
snoise                                       0
outb                                  0.863901
xpg1.invo                             0.863901
xpg1.xe                               0.863901
outa                                  0.863901
xpg2.reset_loop                       0.863901
xpg2.critical_node                    0.863901
xpg2.invo                             0.863901
xpg2.xe                               0.863901
v2#branch                                    0
v4#branch                          0.000118001
v3#branch                         -0.000118001



No. of Data Rows : 72124
responsetimea1      =  4.315160e-10
responsetimea2      =  4.520513e-10
responsetimea3      =  6.012598e-10
responsetimea4      =  6.612269e-10
responsetimeb1      =  5.181083e-10
responsetimeb2      =  5.695736e-10
responsetimeb3      =  6.843435e-10
responsetimeb4      =  7.422998e-10
iavg_start_to_response_a1=  -7.836227e-05 from=  0.000000e+00 to=  4.350000e-10
iavg_start_to_response_b1=  -9.061619e-05 from=  0.000000e+00 to=  5.200000e-10
iavg_from_response_a1_to_response_a4=  -1.783649e-04 from=  4.315160e-10 to=  6.630000e-10
iavg_from_response_b1_to_response_b4=  -1.971949e-04 from=  5.181083e-10 to=  7.430000e-10
iavg_from_response_a1_to_response_b1=  0.000000e+00 from=  5.181083e-10 to=  5.200000e-10
Note: No ".plot", ".print", or ".fourier" lines; no simulations run
