
Circuit: *pulseloop

Doing analysis at TEMP = 27.000000 and TNOM = 27.000000


Initial Transient Solution
--------------------------

Node                                   Voltage
----                                   -------
xpg.1                                      1.8
xpg.reset_loop                             1.8
xpg.critical_node                          1.8
snoise4                                      0
xpg.ha                              3.8082e-09
xpg.ga                             9.73848e-08
xpg.fa                             2.48662e-06
snoise5                                      0
xpg.ea                             6.35385e-05
xpg.da                              0.00165415
snoise3                                      0
xpg.ca                                0.163172
snoise1                                      0
snoise2                                      0
xpg.invo                           9.68599e-07
xpg.xe                                     1.8
out                                9.68599e-07
snoise6                                      0
snoise7                                      0
snoise8                                      0
v9#branch                                    0
v8#branch                                    0
v7#branch                                    0
v6#branch                                    0
v5#branch                                    0
v4#branch                                    0
v3#branch                                    0
v2#branch                                    0
v.xpg.v1#branch                   -1.01105e-09

doAnalyses: TRAN:  Timestep too small; time = 7.06e-09, timestep = 1.25e-23: trouble with node "xpg.critical_node"


tran simulation(s) aborted
Doing analysis at TEMP = 27.000000 and TNOM = 27.000000


  Measurements for Transient Analysis

responsetime        =   1.69505e-09
secondrtime         =   1.73981e-09

CPU time since last call: 9.149 seconds.

Total CPU time: 9.149 seconds.

Total DRAM available = 128860.191406 MB.
DRAM currently available = 56968.503906 MB.
Total ngspice program size = 39.004883 MB.
Resident set size = 24.590820 MB.
Shared ngspice pages = 2.096680 MB.
Text (code) pages = 1.597656 MB.
Stack = 0 bytes.
Library pages = 22.624023 MB.

