
Circuit: *pulseloop

Doing analysis at TEMP = 27.000000 and TNOM = 27.000000


Initial Transient Solution
--------------------------

Node                                   Voltage
----                                   -------
xpg.1                                      1.8
xpg.reset_loop                             1.8
xpg.critical_node                          1.8
snoise8                                      0
xpg.ha                             9.40578e-10
snoise7                                      0
xpg.ga                             2.40528e-08
snoise6                                      0
xpg.fa                              6.1415e-07
snoise5                                      0
xpg.ea                             1.56841e-05
snoise4                                      0
xpg.da                             0.000402354
snoise3                                      0
xpg.ca                               0.0118438
snoise1                                      0
xpg.cb                                     1.8
snoise2                                      0
xpg.db                                     1.8
snoise9                                      0
xpg.eb                                     1.8
snoise10                                     0
xpg.fb                                     1.8
snoise11                                     0
snoise12                                     0
xpg.invo                           9.68599e-07
xpg.xe                                     1.8
out                                9.68599e-07
v13#branch                                   0
v12#branch                                   0
v11#branch                                   0
v10#branch                                   0
v9#branch                                    0
v8#branch                                    0
v7#branch                                    0
v6#branch                                    0
v5#branch                                    0
v4#branch                                    0
v3#branch                                    0
v2#branch                                    0
v.xpg.v1#branch                   -1.01104e-09



No. of Data Rows : 4082

  Measurements for Transient Analysis

responsetime        =   3.66077e-09
secondrtime         =   3.67878e-09

Doing analysis at TEMP = 27.000000 and TNOM = 27.000000


  Measurements for Transient Analysis

responsetime        =   3.66077e-09
secondrtime         =   3.67878e-09

CPU time since last call: 10.327 seconds.

Total CPU time: 10.327 seconds.

Total DRAM available = 128860.191406 MB.
DRAM currently available = 57066.492188 MB.
Total ngspice program size = 42.485352 MB.
Resident set size = 28.140625 MB.
Shared ngspice pages = 2.101562 MB.
Text (code) pages = 1.597656 MB.
Stack = 0 bytes.
Library pages = 26.104492 MB.

