
Circuit: *pulseloop

Doing analysis at TEMP = 27.000000 and TNOM = 27.000000

Note: Starting dynamic gmin stepping
Trying gmin =   1.0000E-03 Note: One successful gmin step
Trying gmin =   1.0000E-04 Note: One successful gmin step
Trying gmin =   1.0000E-05 Warning: Further gmin increment
Trying gmin =   5.6234E-05 Note: One successful gmin step
Trying gmin =   2.3714E-05 Note: One successful gmin step
Trying gmin =   6.4938E-06 Note: One successful gmin step
Trying gmin =   9.3057E-07 Note: One successful gmin step
Trying gmin =   9.3057E-08 Note: One successful gmin step
Trying gmin =   9.3057E-09 Note: One successful gmin step
Trying gmin =   9.3057E-10 Note: One successful gmin step
Trying gmin =   9.3057E-11 Note: One successful gmin step
Trying gmin =   9.3057E-12 Note: One successful gmin step
Trying gmin =   1.0000E-12 Note: One successful gmin step
Note: Dynamic gmin stepping completed

Initial Transient Solution
--------------------------

Node                                   Voltage
----                                   -------
xpg1.1                                     1.8
xpg1.reset_loop                            1.8
xpg1.critical_node                     1.74017
snoise                                       0
outb                               9.68599e-07
xpg1.invo                          2.45993e-06
xpg1.xe                                    1.8
outa                               9.68599e-07
xpg2.1                                     1.8
xpg2.reset_loop                            1.8
xpg2.critical_node                     1.74017
xpg2.invo                          2.45993e-06
xpg2.xe                                    1.8
xpg3.1                                     1.8
xpg3.reset_loop                            1.8
xpg3.critical_node                     1.74017
npoutb                             9.68599e-07
xpg3.invo                          2.45993e-06
xpg3.xe                                    1.8
npouta                             9.68599e-07
xpg4.1                                     1.8
xpg4.reset_loop                            1.8
xpg4.critical_node                         1.8
xpg4.invo                          9.68599e-07
xpg4.xe                                    1.8
v2#branch                                    0
v.xpg4.v1#branch                  -1.01106e-09
v.xpg3.v1#branch                  -1.74993e-09
v.xpg2.v1#branch                  -1.74993e-09
v.xpg1.v1#branch                  -1.74993e-09



No. of Data Rows : 31509

  Measurements for Transient Analysis

responsetimea       =   3.78776e-10
responsetimea       =   4.33584e-10
responsetimea       =   6.16013e-10
responsetimea       =   6.79733e-10
responsetimeb       =   4.59796e-10
responsetimeb       =   5.19152e-10
responsetimeb       =   7.05384e-10
responsetimeb       =   8.36830e-10
npresponsetimea     =   3.78755e-10
npresponsetimea     =   4.33664e-10
npresponsetimea     =   6.15980e-10
npresponsetimea     =   6.80494e-10
npresponsetimeb     =   4.70154e-09
npresponsetimeb     =   4.72463e-09
npresponsetimeb     =   4.91995e-09
npresponsetimeb     =   4.96198e-09

Doing analysis at TEMP = 27.000000 and TNOM = 27.000000


  Measurements for Transient Analysis

responsetimea       =   3.78776e-10
responsetimea       =   4.33584e-10
responsetimea       =   6.16013e-10
responsetimea       =   6.79733e-10
responsetimeb       =   4.59796e-10
responsetimeb       =   5.19152e-10
responsetimeb       =   7.05384e-10
responsetimeb       =   8.36830e-10
npresponsetimea     =   3.78755e-10
npresponsetimea     =   4.33664e-10
npresponsetimea     =   6.15980e-10
npresponsetimea     =   6.80494e-10
npresponsetimeb     =   4.70154e-09
npresponsetimeb     =   4.72463e-09
npresponsetimeb     =   4.91995e-09
npresponsetimeb     =   4.96198e-09

CPU time since last call: 26.739 seconds.

Total CPU time: 26.739 seconds.

Total DRAM available = 128860.136719 MB.
DRAM currently available = 110602.714844 MB.
Total ngspice program size = 74.764648 MB.
Resident set size = 60.349609 MB.
Shared ngspice pages = 2.083008 MB.
Text (code) pages = 1.597656 MB.
Stack = 0 bytes.
Library pages = 58.383789 MB.

