
Circuit: *pulseloop

Doing analysis at TEMP = 27.000000 and TNOM = 27.000000

Note: Starting dynamic gmin stepping
Trying gmin =   1.0000E-03 Note: One successful gmin step
Trying gmin =   1.0000E-04 Note: One successful gmin step
Trying gmin =   1.0000E-05 Warning: Further gmin increment
Trying gmin =   5.6234E-05 Note: One successful gmin step
Trying gmin =   2.3714E-05 Note: One successful gmin step
Trying gmin =   6.4938E-06 Note: One successful gmin step
Trying gmin =   9.3057E-07 Note: One successful gmin step
Trying gmin =   9.3057E-08 Note: One successful gmin step
Trying gmin =   9.3057E-09 Note: One successful gmin step
Trying gmin =   9.3057E-10 Note: One successful gmin step
Trying gmin =   9.3057E-11 Note: One successful gmin step
Trying gmin =   9.3057E-12 Note: One successful gmin step
Trying gmin =   1.0000E-12 Note: One successful gmin step
Note: Dynamic gmin stepping completed

Initial Transient Solution
--------------------------

Node                                   Voltage
----                                   -------
xpg1.1                                     1.8
xpg1.reset_loop                            1.8
xpg1.critical_node                     1.74017
snoise                                       0
outb                               9.68599e-07
xpg1.invo                          2.45993e-06
xpg1.xe                                    1.8
outa                               9.68599e-07
xpg2.1                                     1.8
xpg2.reset_loop                            1.8
xpg2.critical_node                     1.74017
xpg2.invo                          2.45993e-06
xpg2.xe                                    1.8
xpg3.1                                     1.8
xpg3.reset_loop                            1.8
xpg3.critical_node                     1.74017
npoutb                             9.68599e-07
xpg3.invo                          2.45993e-06
xpg3.xe                                    1.8
npouta                             9.68599e-07
xpg4.1                                     1.8
xpg4.reset_loop                            1.8
xpg4.critical_node                         1.8
xpg4.invo                          9.68599e-07
xpg4.xe                                    1.8
v2#branch                                    0
v.xpg4.v1#branch                  -1.01106e-09
v.xpg3.v1#branch                  -1.74993e-09
v.xpg2.v1#branch                  -1.74993e-09
v.xpg1.v1#branch                  -1.74993e-09

doAnalyses: TRAN:  Timestep too small; time = 6.86e-09, timestep = 1.25e-23: cause unrecorded.


tran simulation(s) aborted
Doing analysis at TEMP = 27.000000 and TNOM = 27.000000


  Measurements for Transient Analysis

responsetimea       =   1.76262e-10
responsetimea       =   2.38575e-10
responsetimea       =   3.81466e-10
responsetimea       =   4.06256e-10
responsetimeb       =   2.57184e-10
responsetimeb       =   3.11073e-10
responsetimeb       =   4.64885e-10
responsetimeb       =   5.22698e-10
npresponsetimea     =   1.76360e-10
npresponsetimea     =   2.38526e-10
npresponsetimea     =   3.31596e-10
npresponsetimea     =   3.90755e-10
npresponsetimeb     =   4.41690e-10
npresponsetimeb     =   4.61918e-10
npresponsetimeb     =   8.85284e-10
npresponsetimeb     =   9.20006e-10

CPU time since last call: 10.935 seconds.

Total CPU time: 10.935 seconds.

Total DRAM available = 128860.136719 MB.
DRAM currently available = 110639.011719 MB.
Total ngspice program size = 63.789062 MB.
Resident set size = 49.384766 MB.
Shared ngspice pages = 2.077148 MB.
Text (code) pages = 1.597656 MB.
Stack = 0 bytes.
Library pages = 47.408203 MB.

