
Circuit: *pulseloop

Doing analysis at TEMP = 27.000000 and TNOM = 27.000000

Note: Starting dynamic gmin stepping
Trying gmin =   1.0000E-03 Note: One successful gmin step
Trying gmin =   1.0000E-04 Note: One successful gmin step
Trying gmin =   1.0000E-05 Warning: Further gmin increment
Trying gmin =   5.6234E-05 Note: One successful gmin step
Trying gmin =   2.3714E-05 Note: One successful gmin step
Trying gmin =   6.4938E-06 Note: One successful gmin step
Trying gmin =   9.3057E-07 Note: One successful gmin step
Trying gmin =   9.3057E-08 Note: One successful gmin step
Trying gmin =   9.3057E-09 Note: One successful gmin step
Trying gmin =   9.3057E-10 Note: One successful gmin step
Trying gmin =   9.3057E-11 Note: One successful gmin step
Trying gmin =   9.3057E-12 Note: One successful gmin step
Trying gmin =   1.0000E-12 Note: One successful gmin step
Note: Dynamic gmin stepping completed

Initial Transient Solution
--------------------------

Node                                   Voltage
----                                   -------
xpg1.1                                     1.8
xpg1.reset_loop                            1.8
xpg1.critical_node                     1.74017
snoise                                       0
outb                               9.68599e-07
xpg1.invo                          2.45993e-06
xpg1.xe                                    1.8
outa                               9.68599e-07
xpg2.1                                     1.8
xpg2.reset_loop                            1.8
xpg2.critical_node                     1.74017
xpg2.invo                          2.45993e-06
xpg2.xe                                    1.8
xpg3.1                                     1.8
xpg3.reset_loop                            1.8
xpg3.critical_node                     1.74017
npoutb                             9.68599e-07
xpg3.invo                          2.45993e-06
xpg3.xe                                    1.8
npouta                             9.68599e-07
xpg4.1                                     1.8
xpg4.reset_loop                            1.8
xpg4.critical_node                         1.8
xpg4.invo                          9.68599e-07
xpg4.xe                                    1.8
v2#branch                                    0
v.xpg4.v1#branch                  -1.01106e-09
v.xpg3.v1#branch                  -1.74993e-09
v.xpg2.v1#branch                  -1.74993e-09
v.xpg1.v1#branch                  -1.74993e-09

doAnalyses: TRAN:  Timestep too small; time = 2.106e-08, timestep = 1.25e-23: cause unrecorded.


tran simulation(s) aborted
Doing analysis at TEMP = 27.000000 and TNOM = 27.000000


  Measurements for Transient Analysis


Error: measure  npresponsetimeb  (WHEN) : out of interval
 .measure tran npresponsetimeb when v(npoutb)=1.2 cross=3 failed!


Error: measure  npresponsetimeb  (WHEN) : out of interval
 .measure tran npresponsetimeb when v(npoutb)=1.2 cross=4 failed!

responsetimea       =   2.70750e-10
responsetimea       =   2.95638e-10
responsetimea       =   3.98586e-09
responsetimea       =   4.04223e-09
responsetimeb       =   3.49511e-10
responsetimeb       =   4.06309e-10
responsetimeb       =   4.06637e-09
responsetimeb       =   4.12545e-09
npresponsetimea     =   2.70649e-10
npresponsetimea     =   2.96917e-10
npresponsetimea     =   3.98588e-09
npresponsetimea     =   4.04210e-09
npresponsetimeb     =   7.60814e-09
npresponsetimeb     =   7.63343e-09

CPU time since last call: 12.782 seconds.

Total CPU time: 12.782 seconds.

Total DRAM available = 128860.136719 MB.
DRAM currently available = 110643.875000 MB.
Total ngspice program size = 65.367188 MB.
Resident set size = 50.936523 MB.
Shared ngspice pages = 2.082031 MB.
Text (code) pages = 1.597656 MB.
Stack = 0 bytes.
Library pages = 48.986328 MB.

