
Circuit: *pulseloop

Doing analysis at TEMP = 27.000000 and TNOM = 27.000000

Note: Starting dynamic gmin stepping
Trying gmin =   1.0000E-03 Note: One successful gmin step
Trying gmin =   1.0000E-04 Note: One successful gmin step
Trying gmin =   1.0000E-05 Warning: Further gmin increment
Trying gmin =   5.6234E-05 Note: One successful gmin step
Trying gmin =   2.3714E-05 Note: One successful gmin step
Trying gmin =   6.4938E-06 Note: One successful gmin step
Trying gmin =   9.3057E-07 Note: One successful gmin step
Trying gmin =   9.3057E-08 Note: One successful gmin step
Trying gmin =   9.3057E-09 Note: One successful gmin step
Trying gmin =   9.3057E-10 Note: One successful gmin step
Trying gmin =   9.3057E-11 Note: One successful gmin step
Trying gmin =   9.3057E-12 Note: One successful gmin step
Trying gmin =   1.0000E-12 Note: One successful gmin step
Note: Dynamic gmin stepping completed

Initial Transient Solution
--------------------------

Node                                   Voltage
----                                   -------
xpg1.1                                     1.8
xpg1.reset_loop                            1.8
xpg1.critical_node                     1.74017
snoise                                       0
outb                               9.68599e-07
xpg1.invo                          2.45993e-06
xpg1.xe                                    1.8
outa                               9.68599e-07
xpg2.1                                     1.8
xpg2.reset_loop                            1.8
xpg2.critical_node                     1.74017
xpg2.invo                          2.45993e-06
xpg2.xe                                    1.8
xpg3.1                                     1.8
xpg3.reset_loop                            1.8
xpg3.critical_node                     1.74017
npoutb                             9.68599e-07
xpg3.invo                          2.45993e-06
xpg3.xe                                    1.8
npouta                             9.68599e-07
xpg4.1                                     1.8
xpg4.reset_loop                            1.8
xpg4.critical_node                         1.8
xpg4.invo                          9.68599e-07
xpg4.xe                                    1.8
v2#branch                                    0
v.xpg4.v1#branch                  -1.01106e-09
v.xpg3.v1#branch                  -1.74993e-09
v.xpg2.v1#branch                  -1.74993e-09
v.xpg1.v1#branch                  -1.74993e-09

doAnalyses: TRAN:  Timestep too small; time = 6.458e-08, timestep = 1.25e-23: trouble with node "xpg3.critical_node"


tran simulation(s) aborted
Doing analysis at TEMP = 27.000000 and TNOM = 27.000000


  Measurements for Transient Analysis

responsetimea       =   2.76591e-10
responsetimea       =   3.33293e-10
responsetimea       =   4.94797e-10
responsetimea       =   5.52910e-10
responsetimeb       =   3.57710e-10
responsetimeb       =   4.14412e-10
responsetimeb       =   5.78458e-10
responsetimeb       =   6.33295e-10
npresponsetimea     =   2.76605e-10
npresponsetimea     =   3.33131e-10
npresponsetimea     =   4.94851e-10
npresponsetimea     =   5.52520e-10
npresponsetimeb     =   1.09750e-09
npresponsetimeb     =   1.14614e-09
npresponsetimeb     =   1.50086e-09
npresponsetimeb     =   1.54439e-09

CPU time since last call: 21.222 seconds.

Total CPU time: 21.222 seconds.

Total DRAM available = 128860.136719 MB.
DRAM currently available = 110617.937500 MB.
Total ngspice program size = 70.531250 MB.
Resident set size = 56.072266 MB.
Shared ngspice pages = 2.062500 MB.
Text (code) pages = 1.597656 MB.
Stack = 0 bytes.
Library pages = 54.150391 MB.

