
Circuit: *pulseloop

Doing analysis at TEMP = 27.000000 and TNOM = 27.000000

Note: Starting dynamic gmin stepping
Trying gmin =   1.0000E-03 Note: One successful gmin step
Trying gmin =   1.0000E-04 Note: One successful gmin step
Trying gmin =   1.0000E-05 Warning: Further gmin increment
Trying gmin =   5.6234E-05 Note: One successful gmin step
Trying gmin =   2.3714E-05 Note: One successful gmin step
Trying gmin =   6.4938E-06 Note: One successful gmin step
Trying gmin =   9.3057E-07 Note: One successful gmin step
Trying gmin =   9.3057E-08 Note: One successful gmin step
Trying gmin =   9.3057E-09 Note: One successful gmin step
Trying gmin =   9.3057E-10 Note: One successful gmin step
Trying gmin =   9.3057E-11 Note: One successful gmin step
Trying gmin =   9.3057E-12 Note: One successful gmin step
Trying gmin =   1.0000E-12 Note: One successful gmin step
Note: Dynamic gmin stepping completed

Initial Transient Solution
--------------------------

Node                                   Voltage
----                                   -------
xpg1.1                                     1.8
xpg1.reset_loop                            1.8
xpg1.critical_node                     1.74017
snoise                                       0
outb                               9.68599e-07
xpg1.invo                          2.45993e-06
xpg1.xe                                    1.8
outa                               9.68599e-07
xpg2.1                                     1.8
xpg2.reset_loop                            1.8
xpg2.critical_node                     1.74017
xpg2.invo                          2.45993e-06
xpg2.xe                                    1.8
xpg3.1                                     1.8
xpg3.reset_loop                            1.8
xpg3.critical_node                     1.74017
npoutb                             9.68599e-07
xpg3.invo                          2.45993e-06
xpg3.xe                                    1.8
npouta                             9.68599e-07
xpg4.1                                     1.8
xpg4.reset_loop                            1.8
xpg4.critical_node                         1.8
xpg4.invo                          9.68599e-07
xpg4.xe                                    1.8
v2#branch                                    0
v.xpg4.v1#branch                  -1.01106e-09
v.xpg3.v1#branch                  -1.74993e-09
v.xpg2.v1#branch                  -1.74993e-09
v.xpg1.v1#branch                  -1.74993e-09

doAnalyses: TRAN:  Timestep too small; time = 5.296e-08, timestep = 1.25e-23: cause unrecorded.


tran simulation(s) aborted
Doing analysis at TEMP = 27.000000 and TNOM = 27.000000


  Measurements for Transient Analysis

responsetimea       =   6.70301e-11
responsetimea       =   1.32179e-10
responsetimea       =   2.79123e-10
responsetimea       =   3.36609e-10
responsetimeb       =   1.49130e-10
responsetimeb       =   2.07448e-10
responsetimeb       =   3.61322e-10
responsetimeb       =   4.14214e-10
npresponsetimea     =   6.69473e-11
npresponsetimea     =   1.32939e-10
npresponsetimea     =   2.21203e-10
npresponsetimea     =   2.89359e-10
npresponsetimeb     =   3.11952e-10
npresponsetimeb     =   3.38040e-10
npresponsetimeb     =   6.37329e-10
npresponsetimeb     =   6.68551e-10

CPU time since last call: 20.612 seconds.

Total CPU time: 20.612 seconds.

Total DRAM available = 128860.136719 MB.
DRAM currently available = 110616.378906 MB.
Total ngspice program size = 69.796875 MB.
Resident set size = 55.346680 MB.
Shared ngspice pages = 2.045898 MB.
Text (code) pages = 1.597656 MB.
Stack = 0 bytes.
Library pages = 53.416016 MB.

