
Circuit: *pulseloop

Doing analysis at TEMP = 27.000000 and TNOM = 27.000000

Note: Starting dynamic gmin stepping
Trying gmin =   1.0000E-03 Note: One successful gmin step
Trying gmin =   1.0000E-04 Note: One successful gmin step
Trying gmin =   1.0000E-05 Warning: Further gmin increment
Trying gmin =   5.6234E-05 Note: One successful gmin step
Trying gmin =   2.3714E-05 Note: One successful gmin step
Trying gmin =   6.4938E-06 Note: One successful gmin step
Trying gmin =   9.3057E-07 Note: One successful gmin step
Trying gmin =   9.3057E-08 Note: One successful gmin step
Trying gmin =   9.3057E-09 Note: One successful gmin step
Trying gmin =   9.3057E-10 Note: One successful gmin step
Trying gmin =   9.3057E-11 Note: One successful gmin step
Trying gmin =   9.3057E-12 Note: One successful gmin step
Trying gmin =   2.9427E-12 Note: One successful gmin step
Trying gmin =   1.0000E-12 Note: One successful gmin step
Note: Dynamic gmin stepping completed

Initial Transient Solution
--------------------------

Node                                   Voltage
----                                   -------
pos_supply                                 1.8
xpg1.reset_loop                            1.8
xpg1.critical_node                     1.74017
neg_supply                                   0
snoise                                       0
outb                               9.68599e-07
xpg1.invo                          2.45993e-06
xpg1.xe                                    1.8
outa                               9.68599e-07
xpg2.reset_loop                            1.8
xpg2.critical_node                     1.74017
xpg2.invo                          2.45993e-06
xpg2.xe                                    1.8
xpg3.reset_loop                            1.8
xpg3.critical_node                     1.74017
npoutb                             9.68599e-07
xpg3.invo                          2.45993e-06
xpg3.xe                                    1.8
npouta                             9.68599e-07
xpg4.reset_loop                            1.8
xpg4.critical_node                         1.8
xpg4.invo                          9.68599e-07
xpg4.xe                                    1.8
xpg5.reset_loop                            1.8
xpg5.critical_node                     1.74017
upb                                9.68599e-07
xpg5.invo                          2.45993e-06
xpg5.xe                                    1.8
upa                                9.68599e-07
xpg6.reset_loop                            1.8
xpg6.critical_node                     1.74017
xpg6.invo                          2.45993e-06
xpg6.xe                                    1.8
v2#branch                                    0
v4#branch                          9.76073e-09
v3#branch                         -9.76073e-09

doAnalyses: TRAN:  Timestep too small; time = 4.22e-09, timestep = 1.25e-23: cause unrecorded.


tran simulation(s) aborted
responsetimea1      =  1.152229e-10
responsetimea2      =  1.975204e-10
responsetimea3      =  3.079452e-10
responsetimea4      =  3.650813e-10
responsetimeb1      =  1.954430e-10
responsetimeb2      =  2.563652e-10
responsetimeb3      =  3.938858e-10
responsetimeb4      =  4.391414e-10
npresponsetimea1    =  1.160414e-10
npresponsetimea2    =  1.990028e-10
npresponsetimea3    =  2.774572e-10
npresponsetimea4    =  3.233981e-10
npresponsetimeb1    =  2.287127e-10
npresponsetimeb2    =  2.739481e-10
npresponsetimeb3    =  9.006194e-10
npresponsetimeb4    =  9.872948e-10
responsetimeupa1    =  1.991192e-10
responsetimeupa2    =  2.688967e-10
responsetimeupa3    =  4.155378e-10
responsetimeupa4    =  4.406555e-10
responsetimeupb1    =  2.802512e-10
responsetimeupb2    =  3.415602e-10
responsetimeupb3    =  5.000164e-10
responsetimeupb4    =  5.558928e-10
tdiff = 2.498584e-10
iavg                =  -7.219134e-04 from=  1.152229e-10 to=  3.657131e-10
iavg = -7.21913e-04
tdiffb = 2.436984e-10
iavgb               =  -5.776132e-04 from=  1.954430e-10 to=  4.400000e-10
iavgb = -5.77613e-04
Note: No ".plot", ".print", or ".fourier" lines; no simulations run
