
Circuit: *pulseloop

Doing analysis at TEMP = 27.000000 and TNOM = 27.000000

Note: Starting dynamic gmin stepping
Trying gmin =   1.0000E-03 Note: One successful gmin step
Trying gmin =   1.0000E-04 Note: One successful gmin step
Trying gmin =   1.0000E-05 Warning: Further gmin increment
Trying gmin =   5.6234E-05 Note: One successful gmin step
Trying gmin =   2.3714E-05 Note: One successful gmin step
Trying gmin =   6.4938E-06 Note: One successful gmin step
Trying gmin =   9.3057E-07 Note: One successful gmin step
Trying gmin =   9.3057E-08 Note: One successful gmin step
Trying gmin =   9.3057E-09 Note: One successful gmin step
Trying gmin =   9.3057E-10 Note: One successful gmin step
Trying gmin =   9.3057E-11 Note: One successful gmin step
Trying gmin =   9.3057E-12 Note: One successful gmin step
Trying gmin =   2.9427E-12 Note: One successful gmin step
Trying gmin =   1.0000E-12 Note: One successful gmin step
Note: Dynamic gmin stepping completed

Initial Transient Solution
--------------------------

Node                                   Voltage
----                                   -------
pos_supply                                 1.8
xpg1.reset_loop                            1.8
xpg1.critical_node                     1.74017
neg_supply                                   0
snoise                                       0
outb                               9.68599e-07
xpg1.invo                          2.45993e-06
xpg1.xe                                    1.8
outa                               9.68599e-07
xpg2.reset_loop                            1.8
xpg2.critical_node                     1.74017
xpg2.invo                          2.45993e-06
xpg2.xe                                    1.8
xpg3.reset_loop                            1.8
xpg3.critical_node                     1.74017
npoutb                             9.68599e-07
xpg3.invo                          2.45993e-06
xpg3.xe                                    1.8
npouta                             9.68599e-07
xpg4.reset_loop                            1.8
xpg4.critical_node                         1.8
xpg4.invo                          9.68599e-07
xpg4.xe                                    1.8
xpg5.reset_loop                            1.8
xpg5.critical_node                     1.74017
upb                                9.68599e-07
xpg5.invo                          2.45993e-06
xpg5.xe                                    1.8
upa                                9.68599e-07
xpg6.reset_loop                            1.8
xpg6.critical_node                     1.74017
xpg6.invo                          2.45993e-06
xpg6.xe                                    1.8
v2#branch                                    0
v4#branch                          9.76073e-09
v3#branch                         -9.76073e-09

doAnalyses: TRAN:  Timestep too small; time = 4.18e-09, timestep = 1.25e-23: cause unrecorded.


tran simulation(s) aborted
responsetimea1      =  1.389860e-10
responsetimea2      =  2.000351e-10
responsetimea3      =  2.529727e-10
responsetimea4      =  3.065378e-10
responsetimeb1      =  2.333308e-10
responsetimeb2      =  2.656079e-10
responsetimeb3      =  3.629952e-10
responsetimeb4      =  4.775737e-10
npresponsetimea1    =  1.399905e-10
npresponsetimea2    =  2.000265e-10
npresponsetimea3    =  2.525241e-10
npresponsetimea4    =  3.957392e-10
npresponsetimeb1    =  2.494234e-10
npresponsetimeb2    =  2.719936e-10
npresponsetimeb3    =  3.710820e-10
npresponsetimeb4    =  4.587349e-10
responsetimeupa1    =  2.227226e-10
responsetimeupa2    =  2.822313e-10
responsetimeupa3    =  3.320577e-10
responsetimeupa4    =  4.659613e-10
responsetimeupb1    =  3.126010e-10
responsetimeupb2    =  3.483531e-10
responsetimeupb3    =  4.258562e-10
responsetimeupb4    =  5.347535e-10
tdiff = 1.675518e-10
iavg                =  -7.937977e-04 from=  1.389860e-10 to=  3.077071e-10
iavg = -7.93798e-04
tdiffb = 2.442429e-10
iavgb               =  -1.238351e-03 from=  2.333308e-10 to=  4.784446e-10
iavgb = -1.23835e-03
Note: No ".plot", ".print", or ".fourier" lines; no simulations run
