
Circuit: *pulseloop

Doing analysis at TEMP = 27.000000 and TNOM = 27.000000


Initial Transient Solution
--------------------------

Node                                   Voltage
----                                   -------
pos_supply                                 1.8
xpg1.reset_loop                       0.863901
xpg1.critical_node                    0.863901
neg_supply                                   0
snoise                                       0
outb                                  0.863901
xpg1.invo                             0.863901
xpg1.xe                               0.863901
outa                                  0.863901
xpg2.reset_loop                       0.863901
xpg2.critical_node                    0.863901
xpg2.invo                             0.863901
xpg2.xe                               0.863901
xpg3.reset_loop                            1.8
xpg3.critical_node                     1.73839
npoutb                             9.68599e-07
xpg3.invo                          2.52675e-06
xpg3.xe                                    1.8
npouta                             9.68599e-07
xpg4.reset_loop                            1.8
xpg4.critical_node                         1.8
xpg4.invo                          9.68599e-07
xpg4.xe                                    1.8
xpg5.reset_loop                    9.68802e-07
xpg5.critical_node                    0.387854
upb                                        1.8
xpg5.invo                              1.79999
xpg5.xe                            9.68802e-07
upa                                        1.8
xpg6.reset_loop                    9.68666e-07
xpg6.critical_node                    0.349173
xpg6.invo                                  1.8
xpg6.xe                            9.68666e-07
v2#branch                                    0
v4#branch                          0.000389733
v3#branch                         -0.000389733



No. of Data Rows : 9631
responsetimea1      =  1.309060e-10
responsetimea2      =  2.324503e-10
responsetimea3      =  2.801190e-10
responsetimea4      =  3.778742e-10
responsetimeb1      =  1.213570e-10
responsetimeb2      =  1.649084e-10
responsetimeb3      =  1.992487e-10
responsetimeb4      =  3.030648e-10
npresponsetimea1    =  9.976487e-10
npresponsetimea2    =  1.043814e-09
npresponsetimea3    =  1.188071e-09
npresponsetimea4    =  1.246637e-09
npresponsetimeb1    =  1.106622e-09
npresponsetimeb2    =  1.140081e-09

Error: measure  npresponsetimeb3  (WHEN) : out of interval
 meas tran npresponsetimeb3 when v(npoutb)=1.2 cross=3 failed!


Error: measure  npresponsetimeb4  (WHEN) : out of interval
 meas tran npresponsetimeb4 when v(npoutb)=1.2 cross=4 failed!


Error: measure  responsetimeupa1  (WHEN) : out of interval
 meas tran responsetimeupa1 when v(upa)=1.2 cross=1 failed!


Error: measure  responsetimeupa2  (WHEN) : out of interval
 meas tran responsetimeupa2 when v(upa)=1.2 cross=2 failed!


Error: measure  responsetimeupa3  (WHEN) : out of interval
 meas tran responsetimeupa3 when v(upa)=1.2 cross=3 failed!


Error: measure  responsetimeupa4  (WHEN) : out of interval
 meas tran responsetimeupa4 when v(upa)=1.2 cross=4 failed!


Error: measure  responsetimeupb1  (WHEN) : out of interval
 meas tran responsetimeupb1 when v(upb)=1.2 cross=1 failed!


Error: measure  responsetimeupb2  (WHEN) : out of interval
 meas tran responsetimeupb2 when v(upb)=1.2 cross=2 failed!


Error: measure  responsetimeupb3  (WHEN) : out of interval
 meas tran responsetimeupb3 when v(upb)=1.2 cross=3 failed!


Error: measure  responsetimeupb4  (WHEN) : out of interval
 meas tran responsetimeupb4 when v(upb)=1.2 cross=4 failed!

tdiff = 2.469682e-10
iavg                =  -5.612322e-04 from=  1.309060e-10 to=  3.800000e-10
tdiff = 1.817078e-10
iavg = -5.61232e-04
iavgb               =  -5.757469e-04 from=  1.213570e-10 to=  3.070000e-10
iavgb = -5.75747e-04
Note: No ".plot", ".print", or ".fourier" lines; no simulations run
