
Circuit: *pulseloop

Doing analysis at TEMP = 27.000000 and TNOM = 27.000000

Note: Starting dynamic gmin stepping
Trying gmin =   1.0000E-03 Note: One successful gmin step
Trying gmin =   1.0000E-04 Note: One successful gmin step
Trying gmin =   1.0000E-05 Warning: Further gmin increment
Trying gmin =   5.6234E-05 Note: One successful gmin step
Trying gmin =   2.3714E-05 Note: One successful gmin step
Trying gmin =   6.4938E-06 Note: One successful gmin step
Trying gmin =   9.3057E-07 Note: One successful gmin step
Trying gmin =   9.3057E-08 Note: One successful gmin step
Trying gmin =   9.3057E-09 Note: One successful gmin step
Trying gmin =   9.3057E-10 Note: One successful gmin step
Trying gmin =   9.3057E-11 Note: One successful gmin step
Trying gmin =   9.3057E-12 Note: One successful gmin step
Trying gmin =   2.9427E-12 Note: One successful gmin step
Trying gmin =   1.0000E-12 Note: One successful gmin step
Note: Dynamic gmin stepping completed

Initial Transient Solution
--------------------------

Node                                   Voltage
----                                   -------
pos_supply                                 1.8
xpg1.reset_loop                            1.8
xpg1.critical_node                     1.74017
neg_supply                                   0
snoise                                       0
outb                               9.68599e-07
xpg1.invo                          2.45993e-06
xpg1.xe                                    1.8
outa                               9.68599e-07
xpg2.reset_loop                            1.8
xpg2.critical_node                     1.74017
xpg2.invo                          2.45993e-06
xpg2.xe                                    1.8
xpg3.reset_loop                            1.8
xpg3.critical_node                     1.74017
npoutb                             9.68599e-07
xpg3.invo                          2.45993e-06
xpg3.xe                                    1.8
npouta                             9.68599e-07
xpg4.reset_loop                            1.8
xpg4.critical_node                         1.8
xpg4.invo                          9.68599e-07
xpg4.xe                                    1.8
xpg5.reset_loop                            1.8
xpg5.critical_node                     1.74017
upb                                9.68599e-07
xpg5.invo                          2.45993e-06
xpg5.xe                                    1.8
upa                                9.68599e-07
xpg6.reset_loop                            1.8
xpg6.critical_node                     1.74017
xpg6.invo                          2.45993e-06
xpg6.xe                                    1.8
v2#branch                                    0
v4#branch                          9.76073e-09
v3#branch                         -9.76073e-09



No. of Data Rows : 3839
responsetimea1      =  2.106012e-10
responsetimea2      =  3.272522e-10
responsetimea3      =  6.089432e-10
responsetimea4      =  6.802341e-10
responsetimeb1      =  3.024964e-10
responsetimeb2      =  3.962625e-10
responsetimeb3      =  6.958611e-10
responsetimeb4      =  7.542794e-10
npresponsetimea1    =  2.116325e-10
npresponsetimea2    =  3.288662e-10
npresponsetimea3    =  6.107568e-10
npresponsetimea4    =  6.814123e-10
npresponsetimeb1    =  3.097342e-10
npresponsetimeb2    =  3.686166e-10
npresponsetimeb3    =  1.125198e-09
npresponsetimeb4    =  1.154782e-09
responsetimeupa1    =  2.954656e-10
responsetimeupa2    =  4.004036e-10
responsetimeupa3    =  6.965244e-10
responsetimeupa4    =  7.558536e-10
responsetimeupb1    =  3.812246e-10
responsetimeupb2    =  4.692522e-10
responsetimeupb3    =  7.798113e-10
responsetimeupb4    =  8.387968e-10
tdiff = 4.696329e-10
iavg                =  -4.026347e-04 from=  2.106012e-10 to=  6.810000e-10
iavg = -4.02635e-04
tdiffb = 4.517830e-10
iavgb               =  -3.404267e-04 from=  3.024964e-10 to=  7.578322e-10
iavgb = -3.40427e-04
Note: No ".plot", ".print", or ".fourier" lines; no simulations run
