
Circuit: *pulseloop

Doing analysis at TEMP = 27.000000 and TNOM = 27.000000

Note: Starting dynamic gmin stepping
Trying gmin =   1.0000E-03 Note: One successful gmin step
Trying gmin =   1.0000E-04 Note: One successful gmin step
Trying gmin =   1.0000E-05 Warning: Further gmin increment
Trying gmin =   5.6234E-05 Note: One successful gmin step
Trying gmin =   2.3714E-05 Note: One successful gmin step
Trying gmin =   6.4938E-06 Note: One successful gmin step
Trying gmin =   9.3057E-07 Note: One successful gmin step
Trying gmin =   9.3057E-08 Note: One successful gmin step
Trying gmin =   9.3057E-09 Note: One successful gmin step
Trying gmin =   9.3057E-10 Note: One successful gmin step
Trying gmin =   9.3057E-11 Note: One successful gmin step
Trying gmin =   9.3057E-12 Note: One successful gmin step
Trying gmin =   2.9427E-12 Note: One successful gmin step
Trying gmin =   1.0000E-12 Note: One successful gmin step
Note: Dynamic gmin stepping completed

Initial Transient Solution
--------------------------

Node                                   Voltage
----                                   -------
pos_supply                                 1.8
xpg1.reset_loop                            1.8
xpg1.critical_node                     1.74017
neg_supply                                   0
snoise                                       0
outb                               9.68599e-07
xpg1.invo                          2.45993e-06
xpg1.xe                                    1.8
outa                               9.68599e-07
xpg2.reset_loop                            1.8
xpg2.critical_node                     1.74017
xpg2.invo                          2.45993e-06
xpg2.xe                                    1.8
xpg3.reset_loop                            1.8
xpg3.critical_node                     1.74017
npoutb                             9.68599e-07
xpg3.invo                          2.45993e-06
xpg3.xe                                    1.8
npouta                             9.68599e-07
xpg4.reset_loop                            1.8
xpg4.critical_node                         1.8
xpg4.invo                          9.68599e-07
xpg4.xe                                    1.8
xpg5.reset_loop                            1.8
xpg5.critical_node                     1.74017
upb                                9.68599e-07
xpg5.invo                          2.45993e-06
xpg5.xe                                    1.8
upa                                9.68599e-07
xpg6.reset_loop                            1.8
xpg6.critical_node                     1.74017
xpg6.invo                          2.45993e-06
xpg6.xe                                    1.8
v2#branch                                    0
v4#branch                          9.76073e-09
v3#branch                         -9.76073e-09



No. of Data Rows : 1822
responsetimea1      =  1.096064e-10
responsetimea2      =  1.627513e-10
responsetimea3      =  3.003536e-10
responsetimea4      =  3.845647e-10
responsetimeb1      =  1.940379e-10
responsetimeb2      =  2.472353e-10
responsetimeb3      =  3.870162e-10
responsetimeb4      =  4.525400e-10
npresponsetimea1    =  1.111353e-10
npresponsetimea2    =  1.630326e-10
npresponsetimea3    =  2.538056e-10
npresponsetimea4    =  3.300843e-10
npresponsetimeb1    =  7.454769e-10
npresponsetimeb2    =  8.162548e-10
npresponsetimeb3    =  1.254510e-09
npresponsetimeb4    =  1.283845e-09
responsetimeupa1    =  1.946647e-10
responsetimeupa2    =  2.529272e-10
responsetimeupa3    =  3.536154e-10
responsetimeupa4    =  4.026757e-10
responsetimeupb1    =  2.772634e-10
responsetimeupb2    =  3.341347e-10
responsetimeupb3    =  4.400996e-10
responsetimeupb4    =  4.979107e-10
tdiff = 2.749583e-10
iavg                =  -6.721543e-04 from=  1.096064e-10 to=  3.852394e-10
iavg = -6.72154e-04
tdiffb = 2.585021e-10
iavgb               =  -6.943797e-04 from=  1.940379e-10 to=  4.577500e-10
iavgb = -6.94380e-04
Note: No ".plot", ".print", or ".fourier" lines; no simulations run
