
Circuit: *pulseloop

Doing analysis at TEMP = 27.000000 and TNOM = 27.000000

Warning: v3: no DC value, transient time 0 value used

Initial Transient Solution
--------------------------

Node                                   Voltage
----                                   -------
pos_supply                                   0
xpg1.reset_loop                   -8.12365e-17
xpg1.critical_node                -8.80841e-17
neg_supply                                   0
snoise                                       0
outb                              -8.03416e-17
xpg1.invo                         -9.97178e-17
xpg1.xe                           -8.12365e-17
outa                              -8.20934e-17
xpg2.reset_loop                   -7.77454e-17
xpg2.critical_node                -8.26566e-17
xpg2.invo                         -9.75528e-17
xpg2.xe                           -7.77454e-17
xpg3.reset_loop                    4.42443e-15
xpg3.critical_node                 1.71154e-15
npoutb                             1.04917e-18
xpg3.invo                          4.44647e-15
xpg3.xe                            4.42443e-15
npouta                             2.18895e-15
xpg4.reset_loop                      1.586e-19
xpg4.critical_node                 2.86647e-18
xpg4.invo                         -4.27022e-20
xpg4.xe                              1.586e-19
xpg5.reset_loop                    5.35403e-14
xpg5.critical_node                 3.93795e-15
upb                                 9.4555e-14
xpg5.invo                         -2.60077e-14
xpg5.xe                            5.35403e-14
upa                                9.64704e-14
xpg6.reset_loop                    5.25477e-14
xpg6.critical_node                 4.57034e-15
xpg6.invo                         -2.53868e-14
xpg6.xe                            5.25445e-14
v2#branch                                    0
v4#branch                          7.88613e-25
v3#branch                         -7.88613e-25



No. of Data Rows : 9533
responsetimea1      =  9.626116e-09
responsetimea2      =  9.649334e-09
responsetimea3      =  1.002409e-08
responsetimea4      =  1.005891e-08
responsetimeb1      =  1.028004e-08
responsetimeb2      =  1.032538e-08
responsetimeb3      =  1.132491e-08
responsetimeb4      =  1.138429e-08
npresponsetimea1    =  1.004586e-08
npresponsetimea2    =  1.006783e-08
npresponsetimea3    =  1.110369e-08
npresponsetimea4    =  1.114653e-08
npresponsetimeb1    =  2.933282e-08
npresponsetimeb2    =  2.937704e-08

Error: measure  npresponsetimeb3  (WHEN) : out of interval
 meas tran npresponsetimeb3 when v(npoutb)=1.2 cross=3 failed!


Error: measure  npresponsetimeb4  (WHEN) : out of interval
 meas tran npresponsetimeb4 when v(npoutb)=1.2 cross=4 failed!

responsetimeupa1    =  9.832990e-09
responsetimeupa2    =  9.865521e-09
responsetimeupa3    =  1.133151e-08
responsetimeupa4    =  1.138922e-08
responsetimeupb1    =  9.367780e-09
responsetimeupb2    =  9.392525e-09
responsetimeupb3    =  1.012868e-08
responsetimeupb4    =  1.017624e-08
tdiff = 4.327940e-10
iavg                =  -1.105936e-04 from=  9.626116e-09 to=  1.006000e-08
iavg = -1.10594e-04
tdiffb = 1.104250e-09
iavgb               =  -5.996866e-05 from=  1.028004e-08 to=  1.138584e-08
iavgb = -5.99687e-05
Note: No ".plot", ".print", or ".fourier" lines; no simulations run
