
Circuit: *pulseloop

Doing analysis at TEMP = 27.000000 and TNOM = 27.000000

Note: Starting dynamic gmin stepping
Trying gmin =   1.0000E-03 Note: One successful gmin step
Trying gmin =   1.0000E-04 Note: One successful gmin step
Trying gmin =   1.0000E-05 Warning: Further gmin increment
Trying gmin =   5.6234E-05 Note: One successful gmin step
Trying gmin =   2.3714E-05 Note: One successful gmin step
Trying gmin =   6.4938E-06 Note: One successful gmin step
Trying gmin =   9.3057E-07 Note: One successful gmin step
Trying gmin =   9.3057E-08 Note: One successful gmin step
Trying gmin =   9.3057E-09 Note: One successful gmin step
Trying gmin =   9.3057E-10 Note: One successful gmin step
Trying gmin =   9.3057E-11 Note: One successful gmin step
Trying gmin =   9.3057E-12 Note: One successful gmin step
Trying gmin =   2.9427E-12 Note: One successful gmin step
Trying gmin =   1.0000E-12 Note: One successful gmin step
Note: Dynamic gmin stepping completed

Initial Transient Solution
--------------------------

Node                                   Voltage
----                                   -------
pos_supply                                 1.8
xpg1.reset_loop                            1.8
xpg1.critical_node                     1.74017
neg_supply                                   0
snoise                                       0
outb                               9.68599e-07
xpg1.invo                          2.45993e-06
xpg1.xe                                    1.8
outa                               9.68599e-07
xpg2.reset_loop                            1.8
xpg2.critical_node                     1.74017
xpg2.invo                          2.45993e-06
xpg2.xe                                    1.8
xpg3.reset_loop                            1.8
xpg3.critical_node                     1.74017
npoutb                             9.68599e-07
xpg3.invo                          2.45993e-06
xpg3.xe                                    1.8
npouta                             9.68599e-07
xpg4.reset_loop                            1.8
xpg4.critical_node                         1.8
xpg4.invo                          9.68599e-07
xpg4.xe                                    1.8
xpg5.reset_loop                            1.8
xpg5.critical_node                     1.74017
upb                                9.68599e-07
xpg5.invo                          2.45993e-06
xpg5.xe                                    1.8
upa                                9.68599e-07
xpg6.reset_loop                            1.8
xpg6.critical_node                     1.74017
xpg6.invo                          2.45993e-06
xpg6.xe                                    1.8
v2#branch                                    0
v4#branch                          9.76073e-09
v3#branch                         -9.76073e-09



No. of Data Rows : 2752
responsetimea1      =  2.145304e-10
responsetimea2      =  2.738814e-10
responsetimea3      =  5.623333e-10
responsetimea4      =  6.252251e-10
responsetimeb1      =  2.955763e-10
responsetimeb2      =  3.539919e-10
responsetimeb3      =  6.464058e-10
responsetimeb4      =  7.051032e-10
npresponsetimea1    =  2.154487e-10
npresponsetimea2    =  2.745004e-10
npresponsetimea3    =  5.637686e-10
npresponsetimea4    =  6.268989e-10
npresponsetimeb1    =  1.198450e-09
npresponsetimeb2    =  1.248983e-09
npresponsetimeb3    =  2.078455e-09
npresponsetimeb4    =  2.144074e-09
responsetimeupa1    =  2.984821e-10
responsetimeupa2    =  3.568824e-10
responsetimeupa3    =  6.490831e-10
responsetimeupa4    =  7.085023e-10
responsetimeupb1    =  3.796451e-10
responsetimeupb2    =  4.384780e-10
responsetimeupb3    =  7.329352e-10
responsetimeupb4    =  7.915198e-10
tdiff = 4.106947e-10
iavg                =  -2.743032e-04 from=  2.145304e-10 to=  6.258159e-10
iavg = -2.74303e-04
tdiffb = 4.095269e-10
iavgb               =  -2.354114e-04 from=  2.955763e-10 to=  7.070000e-10
iavgb = -2.35411e-04
Note: No ".plot", ".print", or ".fourier" lines; no simulations run
