
Circuit: *pulseloop

Doing analysis at TEMP = 27.000000 and TNOM = 27.000000

Note: Starting dynamic gmin stepping
Trying gmin =   1.0000E-03 Note: One successful gmin step
Trying gmin =   1.0000E-04 Note: One successful gmin step
Trying gmin =   1.0000E-05 Warning: Further gmin increment
Trying gmin =   5.6234E-05 Note: One successful gmin step
Trying gmin =   2.3714E-05 Note: One successful gmin step
Trying gmin =   6.4938E-06 Note: One successful gmin step
Trying gmin =   9.3057E-07 Note: One successful gmin step
Trying gmin =   9.3057E-08 Note: One successful gmin step
Trying gmin =   9.3057E-09 Note: One successful gmin step
Trying gmin =   9.3057E-10 Note: One successful gmin step
Trying gmin =   9.3057E-11 Note: One successful gmin step
Trying gmin =   9.3057E-12 Note: One successful gmin step
Trying gmin =   2.9427E-12 Note: One successful gmin step
Trying gmin =   1.0000E-12 Note: One successful gmin step
Note: Dynamic gmin stepping completed

Initial Transient Solution
--------------------------

Node                                   Voltage
----                                   -------
pos_supply                                 1.8
xpg1.reset_loop                            1.8
xpg1.critical_node                     1.74017
neg_supply                                   0
snoise                                       0
outb                               9.68599e-07
xpg1.invo                          2.45993e-06
xpg1.xe                                    1.8
outa                               9.68599e-07
xpg2.reset_loop                            1.8
xpg2.critical_node                     1.74017
xpg2.invo                          2.45993e-06
xpg2.xe                                    1.8
xpg3.reset_loop                            1.8
xpg3.critical_node                     1.74017
npoutb                             9.68599e-07
xpg3.invo                          2.45993e-06
xpg3.xe                                    1.8
npouta                             9.68599e-07
xpg4.reset_loop                            1.8
xpg4.critical_node                         1.8
xpg4.invo                          9.68599e-07
xpg4.xe                                    1.8
xpg5.reset_loop                            1.8
xpg5.critical_node                     1.74017
upb                                9.68599e-07
xpg5.invo                          2.45993e-06
xpg5.xe                                    1.8
upa                                9.68599e-07
xpg6.reset_loop                            1.8
xpg6.critical_node                     1.74017
xpg6.invo                          2.45993e-06
xpg6.xe                                    1.8
v2#branch                                    0
v4#branch                          9.76073e-09
v3#branch                         -9.76073e-09



No. of Data Rows : 1673
responsetimea1      =  1.200002e-10
responsetimea2      =  1.782156e-10
responsetimea3      =  2.293015e-10
responsetimea4      =  3.106351e-10
responsetimeb1      =  2.166484e-10
responsetimeb2      =  2.542680e-10
responsetimeb3      =  3.071964e-10
responsetimeb4      =  3.796489e-10
npresponsetimea1    =  1.210589e-10
npresponsetimea2    =  1.781192e-10
npresponsetimea3    =  2.285696e-10
npresponsetimea4    =  3.190897e-10
npresponsetimeb1    =  2.229044e-09
npresponsetimeb2    =  2.313372e-09
npresponsetimeb3    =  2.615934e-09
npresponsetimeb4    =  2.672064e-09
responsetimeupa1    =  2.036377e-10
responsetimeupa2    =  2.654981e-10
responsetimeupa3    =  3.061066e-10
responsetimeupa4    =  3.834390e-10
responsetimeupb1    =  2.952009e-10
responsetimeupb2    =  3.348031e-10
responsetimeupb3    =  3.803306e-10
responsetimeupb4    =  4.523276e-10
tdiff = 1.906349e-10
iavg                =  -7.810543e-04 from=  1.200002e-10 to=  3.131964e-10
iavg = -7.81054e-04
tdiffb = 1.630005e-10
iavgb               =  -7.098999e-04 from=  2.166484e-10 to=  3.800000e-10
iavgb = -7.09900e-04
Note: No ".plot", ".print", or ".fourier" lines; no simulations run
