
Circuit: *pulseloop

Doing analysis at TEMP = 27.000000 and TNOM = 27.000000

Note: Starting dynamic gmin stepping
Trying gmin =   1.0000E-03 Note: One successful gmin step
Trying gmin =   1.0000E-04 Note: One successful gmin step
Trying gmin =   1.0000E-05 Warning: Further gmin increment
Trying gmin =   5.6234E-05 Note: One successful gmin step
Trying gmin =   2.3714E-05 Note: One successful gmin step
Trying gmin =   6.4938E-06 Note: One successful gmin step
Trying gmin =   9.3057E-07 Note: One successful gmin step
Trying gmin =   9.3057E-08 Note: One successful gmin step
Trying gmin =   9.3057E-09 Note: One successful gmin step
Trying gmin =   9.3057E-10 Note: One successful gmin step
Trying gmin =   9.3057E-11 Note: One successful gmin step
Trying gmin =   9.3057E-12 Note: One successful gmin step
Trying gmin =   2.9427E-12 Note: One successful gmin step
Trying gmin =   1.0000E-12 Note: One successful gmin step
Note: Dynamic gmin stepping completed

Initial Transient Solution
--------------------------

Node                                   Voltage
----                                   -------
pos_supply                                 1.8
xpg1.reset_loop                            1.8
xpg1.critical_node                     1.74017
neg_supply                                   0
snoise                                       0
outb                               9.68599e-07
xpg1.invo                          2.45993e-06
xpg1.xe                                    1.8
outa                               9.68599e-07
xpg2.reset_loop                            1.8
xpg2.critical_node                     1.74017
xpg2.invo                          2.45993e-06
xpg2.xe                                    1.8
xpg3.reset_loop                            1.8
xpg3.critical_node                     1.74017
npoutb                             9.68599e-07
xpg3.invo                          2.45993e-06
xpg3.xe                                    1.8
npouta                             9.68599e-07
xpg4.reset_loop                            1.8
xpg4.critical_node                         1.8
xpg4.invo                          9.68599e-07
xpg4.xe                                    1.8
xpg5.reset_loop                            1.8
xpg5.critical_node                     1.74017
upb                                9.68599e-07
xpg5.invo                          2.45993e-06
xpg5.xe                                    1.8
upa                                9.68599e-07
xpg6.reset_loop                            1.8
xpg6.critical_node                     1.74017
xpg6.invo                          2.45993e-06
xpg6.xe                                    1.8
v2#branch                                    0
v4#branch                          9.76073e-09
v3#branch                         -9.76073e-09

doAnalyses: TRAN:  Timestep too small; time = 3.9e-09, timestep = 1.25e-23: cause unrecorded.


tran simulation(s) aborted
responsetimea1      =  9.065441e-11
responsetimea2      =  1.434662e-10
responsetimea3      =  2.442260e-10
responsetimea4      =  2.957168e-10
responsetimeb1      =  1.747507e-10
responsetimeb2      =  2.159111e-10
responsetimeb3      =  3.280834e-10
responsetimeb4      =  3.875508e-10
npresponsetimea1    =  9.210976e-11
npresponsetimea2    =  1.433388e-10
npresponsetimea3    =  2.229851e-10
npresponsetimea4    =  2.882571e-10
npresponsetimeb1    =  2.003043e-10
npresponsetimeb2    =  2.229374e-10
npresponsetimeb3    =  5.491016e-10
npresponsetimeb4    =  5.974919e-10
responsetimeupa1    =  1.754183e-10
responsetimeupa2    =  2.334969e-10
responsetimeupa3    =  3.125945e-10
responsetimeupa4    =  3.539801e-10
responsetimeupb1    =  2.579773e-10
responsetimeupb2    =  3.120397e-10
responsetimeupb3    =  3.938995e-10
responsetimeupb4    =  4.516919e-10
tdiff = 2.050624e-10
iavg                =  -6.883759e-04 from=  9.065441e-11 to=  3.000000e-10
iavg = -6.88376e-04
tdiffb = 2.128001e-10
iavgb               =  -6.274951e-04 from=  1.747507e-10 to=  3.908779e-10
iavgb = -6.27495e-04
Note: No ".plot", ".print", or ".fourier" lines; no simulations run
