
Circuit: *pulseloop

Doing analysis at TEMP = 27.000000 and TNOM = 27.000000

Note: Starting dynamic gmin stepping
Trying gmin =   1.0000E-03 Note: One successful gmin step
Trying gmin =   1.0000E-04 Note: One successful gmin step
Trying gmin =   1.0000E-05 Warning: Further gmin increment
Trying gmin =   5.6234E-05 Note: One successful gmin step
Trying gmin =   2.3714E-05 Note: One successful gmin step
Trying gmin =   6.4938E-06 Note: One successful gmin step
Trying gmin =   9.3057E-07 Note: One successful gmin step
Trying gmin =   9.3057E-08 Note: One successful gmin step
Trying gmin =   9.3057E-09 Note: One successful gmin step
Trying gmin =   9.3057E-10 Note: One successful gmin step
Trying gmin =   9.3057E-11 Note: One successful gmin step
Trying gmin =   9.3057E-12 Note: One successful gmin step
Trying gmin =   2.9427E-12 Note: One successful gmin step
Trying gmin =   1.0000E-12 Note: One successful gmin step
Note: Dynamic gmin stepping completed

Initial Transient Solution
--------------------------

Node                                   Voltage
----                                   -------
pos_supply                                 1.8
xpg1.reset_loop                            1.8
xpg1.critical_node                     1.74017
neg_supply                                   0
snoise                                       0
outb                               9.68599e-07
xpg1.invo                          2.45993e-06
xpg1.xe                                    1.8
outa                               9.68599e-07
xpg2.reset_loop                            1.8
xpg2.critical_node                     1.74017
xpg2.invo                          2.45993e-06
xpg2.xe                                    1.8
xpg3.reset_loop                            1.8
xpg3.critical_node                     1.74017
npoutb                             9.68599e-07
xpg3.invo                          2.45993e-06
xpg3.xe                                    1.8
npouta                             9.68599e-07
xpg4.reset_loop                            1.8
xpg4.critical_node                         1.8
xpg4.invo                          9.68599e-07
xpg4.xe                                    1.8
xpg5.reset_loop                            1.8
xpg5.critical_node                     1.74017
upb                                9.68599e-07
xpg5.invo                          2.45993e-06
xpg5.xe                                    1.8
upa                                9.68599e-07
xpg6.reset_loop                            1.8
xpg6.critical_node                     1.74017
xpg6.invo                          2.45993e-06
xpg6.xe                                    1.8
v2#branch                                    0
v4#branch                          9.76073e-09
v3#branch                         -9.76073e-09



No. of Data Rows : 4644
responsetimea1      =  2.056808e-10
responsetimea2      =  2.635368e-10
responsetimea3      =  6.440332e-10
responsetimea4      =  7.005473e-10
responsetimeb1      =  2.870086e-10
responsetimeb2      =  3.458205e-10
responsetimeb3      =  7.268495e-10
responsetimeb4      =  7.869852e-10
npresponsetimea1    =  2.070222e-10
npresponsetimea2    =  2.644010e-10
npresponsetimea3    =  6.455066e-10
npresponsetimea4    =  7.017541e-10
npresponsetimeb1    =  2.677524e-09
npresponsetimeb2    =  2.719745e-09
npresponsetimeb3    =  5.620003e-09
npresponsetimeb4    =  5.643353e-09
responsetimeupa1    =  2.901525e-10
responsetimeupa2    =  3.486673e-10
responsetimeupa3    =  7.307789e-10
responsetimeupa4    =  7.903057e-10
responsetimeupb1    =  3.715875e-10
responsetimeupb2    =  4.297883e-10
responsetimeupb3    =  8.156612e-10
responsetimeupb4    =  8.731339e-10
tdiff = 4.948665e-10
iavg                =  -2.568666e-04 from=  2.056808e-10 to=  7.014611e-10
iavg = -2.56867e-04
tdiffb = 4.999766e-10
iavgb               =  -2.164186e-04 from=  2.870086e-10 to=  7.870000e-10
iavgb = -2.16419e-04
Note: No ".plot", ".print", or ".fourier" lines; no simulations run
