
Circuit: *pulseloop

Doing analysis at TEMP = 27.000000 and TNOM = 27.000000

Note: Starting dynamic gmin stepping
Trying gmin =   1.0000E-03 Note: One successful gmin step
Trying gmin =   1.0000E-04 Note: One successful gmin step
Trying gmin =   1.0000E-05 Warning: Further gmin increment
Trying gmin =   5.6234E-05 Note: One successful gmin step
Trying gmin =   2.3714E-05 Note: One successful gmin step
Trying gmin =   6.4938E-06 Note: One successful gmin step
Trying gmin =   9.3057E-07 Note: One successful gmin step
Trying gmin =   9.3057E-08 Note: One successful gmin step
Trying gmin =   9.3057E-09 Note: One successful gmin step
Trying gmin =   9.3057E-10 Note: One successful gmin step
Trying gmin =   9.3057E-11 Note: One successful gmin step
Trying gmin =   9.3057E-12 Note: One successful gmin step
Trying gmin =   2.9427E-12 Note: One successful gmin step
Trying gmin =   1.0000E-12 Note: One successful gmin step
Note: Dynamic gmin stepping completed

Initial Transient Solution
--------------------------

Node                                   Voltage
----                                   -------
pos_supply                                 1.8
xpg1.reset_loop                            1.8
xpg1.critical_node                     1.74017
neg_supply                                   0
snoise                                       0
outb                               9.68599e-07
xpg1.invo                          2.45993e-06
xpg1.xe                                    1.8
outa                               9.68599e-07
xpg2.reset_loop                            1.8
xpg2.critical_node                     1.74017
xpg2.invo                          2.45993e-06
xpg2.xe                                    1.8
xpg3.reset_loop                            1.8
xpg3.critical_node                     1.74017
npoutb                             9.68599e-07
xpg3.invo                          2.45993e-06
xpg3.xe                                    1.8
npouta                             9.68599e-07
xpg4.reset_loop                            1.8
xpg4.critical_node                         1.8
xpg4.invo                          9.68599e-07
xpg4.xe                                    1.8
xpg5.reset_loop                            1.8
xpg5.critical_node                     1.74017
upb                                9.68599e-07
xpg5.invo                          2.45993e-06
xpg5.xe                                    1.8
upa                                9.68599e-07
xpg6.reset_loop                            1.8
xpg6.critical_node                     1.74017
xpg6.invo                          2.45993e-06
xpg6.xe                                    1.8
v2#branch                                    0
v4#branch                          9.76073e-09
v3#branch                         -9.76073e-09



No. of Data Rows : 1661
responsetimea1      =  1.102121e-10
responsetimea2      =  2.473810e-10
responsetimea3      =  3.748855e-10
responsetimea4      =  4.359002e-10
responsetimeb1      =  1.991979e-10
responsetimeb2      =  3.153355e-10
responsetimeb3      =  4.606065e-10
responsetimeb4      =  5.129931e-10
npresponsetimea1    =  1.113817e-10
npresponsetimea2    =  2.494270e-10
npresponsetimea3    =  3.668763e-10
npresponsetimea4    =  4.266784e-10
npresponsetimeb1    =  2.346502e-10
npresponsetimeb2    =  2.900344e-10
npresponsetimeb3    =  6.456364e-10
npresponsetimeb4    =  7.462027e-10
responsetimeupa1    =  1.955604e-10
responsetimeupa2    =  3.209408e-10
responsetimeupa3    =  4.527705e-10
responsetimeupa4    =  5.110470e-10
responsetimeupb1    =  2.884081e-10
responsetimeupb2    =  3.893921e-10
responsetimeupb3    =  5.366393e-10
responsetimeupb4    =  5.953460e-10
tdiff = 3.256881e-10
iavg                =  -5.603319e-04 from=  1.102121e-10 to=  4.366880e-10
iavg = -5.60332e-04
tdiffb = 3.137952e-10
iavgb               =  -6.766382e-04 from=  1.991979e-10 to=  5.144248e-10
iavgb = -6.76638e-04
Note: No ".plot", ".print", or ".fourier" lines; no simulations run
