
Circuit: *pulseloop

Doing analysis at TEMP = 27.000000 and TNOM = 27.000000

Note: Starting dynamic gmin stepping
Trying gmin =   1.0000E-03 Note: One successful gmin step
Trying gmin =   1.0000E-04 Note: One successful gmin step
Trying gmin =   1.0000E-05 Warning: Further gmin increment
Trying gmin =   5.6234E-05 Note: One successful gmin step
Trying gmin =   2.3714E-05 Note: One successful gmin step
Trying gmin =   6.4938E-06 Note: One successful gmin step
Trying gmin =   9.3057E-07 Note: One successful gmin step
Trying gmin =   9.3057E-08 Note: One successful gmin step
Trying gmin =   9.3057E-09 Note: One successful gmin step
Trying gmin =   9.3057E-10 Note: One successful gmin step
Trying gmin =   9.3057E-11 Note: One successful gmin step
Trying gmin =   9.3057E-12 Note: One successful gmin step
Trying gmin =   2.9427E-12 Note: One successful gmin step
Trying gmin =   1.0000E-12 Note: One successful gmin step
Note: Dynamic gmin stepping completed

Initial Transient Solution
--------------------------

Node                                   Voltage
----                                   -------
pos_supply                                 1.8
xpg1.reset_loop                            1.8
xpg1.critical_node                     1.74017
neg_supply                                   0
snoise                                       0
outb                               9.68599e-07
xpg1.invo                          2.45993e-06
xpg1.xe                                    1.8
outa                               9.68599e-07
xpg2.reset_loop                            1.8
xpg2.critical_node                     1.74017
xpg2.invo                          2.45993e-06
xpg2.xe                                    1.8
xpg3.reset_loop                            1.8
xpg3.critical_node                     1.74017
npoutb                             9.68599e-07
xpg3.invo                          2.45993e-06
xpg3.xe                                    1.8
npouta                             9.68599e-07
xpg4.reset_loop                            1.8
xpg4.critical_node                         1.8
xpg4.invo                          9.68599e-07
xpg4.xe                                    1.8
xpg5.reset_loop                            1.8
xpg5.critical_node                     1.74017
upb                                9.68599e-07
xpg5.invo                          2.45993e-06
xpg5.xe                                    1.8
upa                                9.68599e-07
xpg6.reset_loop                            1.8
xpg6.critical_node                     1.74017
xpg6.invo                          2.45993e-06
xpg6.xe                                    1.8
v2#branch                                    0
v4#branch                          9.76073e-09
v3#branch                         -9.76073e-09



No. of Data Rows : 2770
responsetimea1      =  2.259344e-10
responsetimea2      =  2.446913e-10
responsetimea3      =  3.616665e-10
responsetimea4      =  4.190067e-10
responsetimeb1      =  3.505749e-10
responsetimeb2      =  3.721659e-10
responsetimeb3      =  4.420513e-10
responsetimeb4      =  5.016764e-10
npresponsetimea1    =  2.281942e-10
npresponsetimea2    =  2.434963e-10
npresponsetimea3    =  3.629098e-10
npresponsetimea4    =  4.232570e-10
npresponsetimeb1    =  1.109628e-09
npresponsetimeb2    =  1.157585e-09
npresponsetimeb3    =  2.375335e-09
npresponsetimeb4    =  2.408672e-09
responsetimeupa1    =  3.886503e-10
responsetimeupa2    =  4.931342e-10
responsetimeupa3    =  6.657709e-10
responsetimeupa4    =  7.249963e-10
responsetimeupb1    =  4.743592e-10
responsetimeupb2    =  5.622171e-10
responsetimeupb3    =  7.504173e-10
responsetimeupb4    =  8.097992e-10
tdiff = 1.930723e-10
iavg                =  -5.347742e-04 from=  2.259344e-10 to=  4.192170e-10
iavg = -5.34774e-04
tdiffb = 1.511015e-10
iavgb               =  -6.480972e-04 from=  3.505749e-10 to=  5.030000e-10
iavgb = -6.48097e-04
Note: No ".plot", ".print", or ".fourier" lines; no simulations run
