
Circuit: *pulseloop

Doing analysis at TEMP = 27.000000 and TNOM = 27.000000

Note: Starting dynamic gmin stepping
Trying gmin =   1.0000E-03 Note: One successful gmin step
Trying gmin =   1.0000E-04 Note: One successful gmin step
Trying gmin =   1.0000E-05 Warning: Further gmin increment
Trying gmin =   5.6234E-05 Note: One successful gmin step
Trying gmin =   2.3714E-05 Note: One successful gmin step
Trying gmin =   6.4938E-06 Note: One successful gmin step
Trying gmin =   9.3057E-07 Note: One successful gmin step
Trying gmin =   9.3057E-08 Note: One successful gmin step
Trying gmin =   9.3057E-09 Note: One successful gmin step
Trying gmin =   9.3057E-10 Note: One successful gmin step
Trying gmin =   9.3057E-11 Note: One successful gmin step
Trying gmin =   9.3057E-12 Note: One successful gmin step
Trying gmin =   2.9427E-12 Note: One successful gmin step
Trying gmin =   1.0000E-12 Note: One successful gmin step
Note: Dynamic gmin stepping completed

Initial Transient Solution
--------------------------

Node                                   Voltage
----                                   -------
pos_supply                                 1.8
xpg1.reset_loop                            1.8
xpg1.critical_node                     1.74017
neg_supply                                   0
snoise                                       0
outb                               9.68599e-07
xpg1.invo                          2.45993e-06
xpg1.xe                                    1.8
outa                               9.68599e-07
xpg2.reset_loop                            1.8
xpg2.critical_node                     1.74017
xpg2.invo                          2.45993e-06
xpg2.xe                                    1.8
xpg3.reset_loop                            1.8
xpg3.critical_node                     1.74017
npoutb                             9.68599e-07
xpg3.invo                          2.45993e-06
xpg3.xe                                    1.8
npouta                             9.68599e-07
xpg4.reset_loop                            1.8
xpg4.critical_node                         1.8
xpg4.invo                          9.68599e-07
xpg4.xe                                    1.8
xpg5.reset_loop                            1.8
xpg5.critical_node                     1.74017
upb                                9.68599e-07
xpg5.invo                          2.45993e-06
xpg5.xe                                    1.8
upa                                9.68599e-07
xpg6.reset_loop                            1.8
xpg6.critical_node                     1.74017
xpg6.invo                          2.45993e-06
xpg6.xe                                    1.8
v2#branch                                    0
v4#branch                          9.76073e-09
v3#branch                         -9.76073e-09



No. of Data Rows : 2371
responsetimea1      =  8.044848e-11
responsetimea2      =  1.380863e-10
responsetimea3      =  6.158503e-10
responsetimea4      =  6.736665e-10
responsetimeb1      =  1.617868e-10
responsetimeb2      =  2.212989e-10
responsetimeb3      =  7.011020e-10
responsetimeb4      =  7.411875e-10
npresponsetimea1    =  8.146961e-11
npresponsetimea2    =  1.392138e-10
npresponsetimea3    =  6.168524e-10
npresponsetimea4    =  6.747607e-10
npresponsetimeb1    =  9.652428e-10
npresponsetimeb2    =  1.059255e-09
npresponsetimeb3    =  1.218495e-09
npresponsetimeb4    =  1.321249e-09
responsetimeupa1    =  1.641870e-10
responsetimeupa2    =  2.231503e-10
responsetimeupa3    =  7.017620e-10
responsetimeupa4    =  7.612094e-10
responsetimeupb1    =  2.450545e-10
responsetimeupb2    =  3.041330e-10
responsetimeupb3    =  7.862607e-10
responsetimeupb4    =  8.436162e-10
tdiff = 5.932180e-10
iavg                =  -2.565433e-04 from=  8.044848e-11 to=  6.797745e-10
iavg = -2.56543e-04
tdiffb = 5.794007e-10
iavgb               =  -8.521890e-05 from=  1.617868e-10 to=  7.430000e-10
iavgb = -8.52189e-05
Note: No ".plot", ".print", or ".fourier" lines; no simulations run
