
Circuit: *pulseloop

Doing analysis at TEMP = 27.000000 and TNOM = 27.000000

Note: Starting dynamic gmin stepping
Trying gmin =   1.0000E-03 Note: One successful gmin step
Trying gmin =   1.0000E-04 Note: One successful gmin step
Trying gmin =   1.0000E-05 Warning: Further gmin increment
Trying gmin =   5.6234E-05 Note: One successful gmin step
Trying gmin =   2.3714E-05 Note: One successful gmin step
Trying gmin =   6.4938E-06 Note: One successful gmin step
Trying gmin =   9.3057E-07 Note: One successful gmin step
Trying gmin =   9.3057E-08 Note: One successful gmin step
Trying gmin =   9.3057E-09 Note: One successful gmin step
Trying gmin =   9.3057E-10 Note: One successful gmin step
Trying gmin =   9.3057E-11 Note: One successful gmin step
Trying gmin =   9.3057E-12 Note: One successful gmin step
Trying gmin =   2.9427E-12 Note: One successful gmin step
Trying gmin =   1.0000E-12 Note: One successful gmin step
Note: Dynamic gmin stepping completed

Initial Transient Solution
--------------------------

Node                                   Voltage
----                                   -------
pos_supply                                 1.8
xpg1.reset_loop                            1.8
xpg1.critical_node                     1.74017
neg_supply                                   0
snoise                                       0
outb                               9.68599e-07
xpg1.invo                          2.45993e-06
xpg1.xe                                    1.8
outa                               9.68599e-07
xpg2.reset_loop                            1.8
xpg2.critical_node                     1.74017
xpg2.invo                          2.45993e-06
xpg2.xe                                    1.8
xpg3.reset_loop                            1.8
xpg3.critical_node                     1.74017
npoutb                             9.68599e-07
xpg3.invo                          2.45993e-06
xpg3.xe                                    1.8
npouta                             9.68599e-07
xpg4.reset_loop                            1.8
xpg4.critical_node                         1.8
xpg4.invo                          9.68599e-07
xpg4.xe                                    1.8
xpg5.reset_loop                            1.8
xpg5.critical_node                     1.74017
upb                                9.68599e-07
xpg5.invo                          2.45993e-06
xpg5.xe                                    1.8
upa                                9.68599e-07
xpg6.reset_loop                            1.8
xpg6.critical_node                     1.74017
xpg6.invo                          2.45993e-06
xpg6.xe                                    1.8
v2#branch                                    0
v4#branch                          9.76073e-09
v3#branch                         -9.76073e-09

doAnalyses: TRAN:  Timestep too small; time = 1.024e-08, timestep = 1.25e-23: cause unrecorded.


tran simulation(s) aborted
responsetimea1      =  3.163010e-10
responsetimea2      =  3.769976e-10
responsetimea3      =  7.471057e-10
responsetimea4      =  7.660284e-10
responsetimeb1      =  3.984015e-10
responsetimeb2      =  4.552676e-10
responsetimeb3      =  8.763027e-10
responsetimeb4      =  9.153735e-10
npresponsetimea1    =  3.172526e-10
npresponsetimea2    =  3.782241e-10
npresponsetimea3    =  7.542522e-10
npresponsetimea4    =  7.699872e-10
npresponsetimeb1    =  1.361777e-09
npresponsetimeb2    =  1.409870e-09
npresponsetimeb3    =  2.269168e-09
npresponsetimeb4    =  2.305668e-09
responsetimeupa1    =  4.003920e-10
responsetimeupa2    =  4.591675e-10
responsetimeupa3    =  1.356646e-09
responsetimeupa4    =  1.414189e-09
responsetimeupb1    =  4.808189e-10
responsetimeupb2    =  5.399557e-10
responsetimeupb3    =  1.439650e-09
responsetimeupb4    =  1.498292e-09
tdiff = 4.497274e-10
iavg                =  -7.541012e-04 from=  3.163010e-10 to=  7.690451e-10
iavg = -7.54101e-04
tdiffb = 5.169720e-10
iavgb               =  -6.042531e-04 from=  3.984015e-10 to=  9.200000e-10
iavgb = -6.04253e-04
Note: No ".plot", ".print", or ".fourier" lines; no simulations run
