
Circuit: *pulseloop

Doing analysis at TEMP = 27.000000 and TNOM = 27.000000

Note: Starting dynamic gmin stepping
Trying gmin =   1.0000E-03 Note: One successful gmin step
Trying gmin =   1.0000E-04 Note: One successful gmin step
Trying gmin =   1.0000E-05 Warning: Further gmin increment
Trying gmin =   5.6234E-05 Note: One successful gmin step
Trying gmin =   2.3714E-05 Note: One successful gmin step
Trying gmin =   6.4938E-06 Note: One successful gmin step
Trying gmin =   9.3057E-07 Note: One successful gmin step
Trying gmin =   9.3057E-08 Note: One successful gmin step
Trying gmin =   9.3057E-09 Note: One successful gmin step
Trying gmin =   9.3057E-10 Note: One successful gmin step
Trying gmin =   9.3057E-11 Note: One successful gmin step
Trying gmin =   9.3057E-12 Note: One successful gmin step
Trying gmin =   2.9427E-12 Note: One successful gmin step
Trying gmin =   1.0000E-12 Note: One successful gmin step
Note: Dynamic gmin stepping completed

Initial Transient Solution
--------------------------

Node                                   Voltage
----                                   -------
xpg1.1                                     1.8
xpg1.reset_loop                            1.8
xpg1.critical_node                     1.74017
snoise                                       0
outb                               9.68599e-07
xpg1.invo                          2.45993e-06
xpg1.xe                                    1.8
outa                               9.68599e-07
xpg2.1                                     1.8
xpg2.reset_loop                            1.8
xpg2.critical_node                     1.74017
xpg2.invo                          2.45993e-06
xpg2.xe                                    1.8
xpg3.1                                     1.8
xpg3.reset_loop                            1.8
xpg3.critical_node                     1.74017
npoutb                             9.68599e-07
xpg3.invo                          2.45993e-06
xpg3.xe                                    1.8
npouta                             9.68599e-07
xpg4.1                                     1.8
xpg4.reset_loop                            1.8
xpg4.critical_node                         1.8
xpg4.invo                          9.68599e-07
xpg4.xe                                    1.8
xpg5.1                                     1.8
xpg5.reset_loop                            1.8
xpg5.critical_node                     1.74017
upb                                9.68599e-07
xpg5.invo                          2.45993e-06
xpg5.xe                                    1.8
upa                                9.68599e-07
xpg6.1                                     1.8
xpg6.reset_loop                            1.8
xpg6.critical_node                     1.74017
xpg6.invo                          2.45993e-06
xpg6.xe                                    1.8
v2#branch                                    0
v.xpg6.v1#branch                  -1.74993e-09
v.xpg5.v1#branch                  -1.74993e-09
v.xpg4.v1#branch                  -1.01106e-09
v.xpg3.v1#branch                  -1.74993e-09
v.xpg2.v1#branch                  -1.74993e-09
v.xpg1.v1#branch                  -1.74993e-09



No. of Data Rows : 30925

  Measurements for Transient Analysis

responsetimea       =   4.48969e-10
responsetimea       =   4.88144e-10
responsetimea       =   6.90772e-10
responsetimea       =   7.42197e-10
responsetimeb       =   5.31391e-10
responsetimeb       =   5.86554e-10
responsetimeb       =   7.74699e-10
responsetimeb       =   8.32659e-10
npresponsetimea     =   4.50463e-10
npresponsetimea     =   4.88407e-10
npresponsetimea     =   6.02703e-10
npresponsetimea     =   6.57799e-10
npresponsetimeb     =   6.51976e-09
npresponsetimeb     =   6.53021e-09
npresponsetimeb     =   1.28789e-08
npresponsetimeb     =   1.29234e-08
responsetimeupa     =   5.31853e-10
responsetimeupa     =   5.91246e-10
responsetimeupa     =   7.16725e-10
responsetimeupa     =   7.50347e-10
responsetimeupb     =   6.14516e-10
responsetimeupb     =   6.72047e-10
responsetimeupb     =   7.99006e-10
responsetimeupb     =   8.57379e-10

Doing analysis at TEMP = 27.000000 and TNOM = 27.000000


  Measurements for Transient Analysis

responsetimea       =   4.48969e-10
responsetimea       =   4.88144e-10
responsetimea       =   6.90772e-10
responsetimea       =   7.42197e-10
responsetimeb       =   5.31391e-10
responsetimeb       =   5.86554e-10
responsetimeb       =   7.74699e-10
responsetimeb       =   8.32659e-10
npresponsetimea     =   4.50463e-10
npresponsetimea     =   4.88407e-10
npresponsetimea     =   6.02703e-10
npresponsetimea     =   6.57799e-10
npresponsetimeb     =   6.51976e-09
npresponsetimeb     =   6.53021e-09
npresponsetimeb     =   1.28789e-08
npresponsetimeb     =   1.29234e-08
responsetimeupa     =   5.31853e-10
responsetimeupa     =   5.91246e-10
responsetimeupa     =   7.16725e-10
responsetimeupa     =   7.50347e-10
responsetimeupb     =   6.14516e-10
responsetimeupb     =   6.72047e-10
responsetimeupb     =   7.99006e-10
responsetimeupb     =   8.57379e-10

CPU time since last call: 35.708 seconds.

Total CPU time: 35.708 seconds.

Total DRAM available = 128860.136719 MB.
DRAM currently available = 110452.414062 MB.
Total ngspice program size = 100.225586 MB.
Resident set size = 85.763672 MB.
Shared ngspice pages = 2.039062 MB.
Text (code) pages = 1.597656 MB.
Stack = 0 bytes.
Library pages = 83.844727 MB.

