
Circuit: *pulseloop

Doing analysis at TEMP = 27.000000 and TNOM = 27.000000

Note: Starting dynamic gmin stepping
Trying gmin =   1.0000E-03 Note: One successful gmin step
Trying gmin =   1.0000E-04 Note: One successful gmin step
Trying gmin =   1.0000E-05 Warning: Further gmin increment
Trying gmin =   5.6234E-05 Note: One successful gmin step
Trying gmin =   2.3714E-05 Note: One successful gmin step
Trying gmin =   6.4938E-06 Note: One successful gmin step
Trying gmin =   9.3057E-07 Note: One successful gmin step
Trying gmin =   9.3057E-08 Note: One successful gmin step
Trying gmin =   9.3057E-09 Note: One successful gmin step
Trying gmin =   9.3057E-10 Note: One successful gmin step
Trying gmin =   9.3057E-11 Note: One successful gmin step
Trying gmin =   9.3057E-12 Note: One successful gmin step
Trying gmin =   2.9427E-12 Note: One successful gmin step
Trying gmin =   1.0000E-12 Note: One successful gmin step
Note: Dynamic gmin stepping completed

Initial Transient Solution
--------------------------

Node                                   Voltage
----                                   -------
pos_supply                                 1.8
xpg1.reset_loop                            1.8
xpg1.critical_node                     1.74017
neg_supply                                   0
snoise                                       0
outb                               9.68599e-07
xpg1.invo                          2.45993e-06
xpg1.xe                                    1.8
outa                               9.68599e-07
xpg2.reset_loop                            1.8
xpg2.critical_node                     1.74017
xpg2.invo                          2.45993e-06
xpg2.xe                                    1.8
xpg3.reset_loop                            1.8
xpg3.critical_node                     1.74017
npoutb                             9.68599e-07
xpg3.invo                          2.45993e-06
xpg3.xe                                    1.8
npouta                             9.68599e-07
xpg4.reset_loop                            1.8
xpg4.critical_node                         1.8
xpg4.invo                          9.68599e-07
xpg4.xe                                    1.8
xpg5.reset_loop                            1.8
xpg5.critical_node                     1.74017
upb                                9.68599e-07
xpg5.invo                          2.45993e-06
xpg5.xe                                    1.8
upa                                9.68599e-07
xpg6.reset_loop                            1.8
xpg6.critical_node                     1.74017
xpg6.invo                          2.45993e-06
xpg6.xe                                    1.8
v2#branch                                    0
v4#branch                          9.76073e-09
v3#branch                         -9.76073e-09



No. of Data Rows : 13540
responsetimea1      =  1.520358e-09
responsetimea2      =  1.547835e-09
responsetimea3      =  4.846624e-09
responsetimea4      =  4.889719e-09
responsetimeb1      =  1.600655e-09
responsetimeb2      =  1.658306e-09
responsetimeb3      =  4.925586e-09
responsetimeb4      =  4.984778e-09
npresponsetimea1    =  1.521953e-09
npresponsetimea2    =  1.547460e-09
npresponsetimea3    =  4.847918e-09
npresponsetimea4    =  4.890371e-09

Error: measure  npresponsetimeb1  (WHEN) : out of interval
 meas tran npresponsetimeb1 when v(npoutb)=1.2 cross=1 failed!


Error: measure  npresponsetimeb2  (WHEN) : out of interval
 meas tran npresponsetimeb2 when v(npoutb)=1.2 cross=2 failed!


Error: measure  npresponsetimeb3  (WHEN) : out of interval
 meas tran npresponsetimeb3 when v(npoutb)=1.2 cross=3 failed!


Error: measure  npresponsetimeb4  (WHEN) : out of interval
 meas tran npresponsetimeb4 when v(npoutb)=1.2 cross=4 failed!

responsetimeupa1    =  1.604417e-09
responsetimeupa2    =  1.661900e-09
responsetimeupa3    =  4.929461e-09
responsetimeupa4    =  4.988853e-09
responsetimeupb1    =  1.685140e-09
responsetimeupb2    =  1.744773e-09
responsetimeupb3    =  5.013723e-09
responsetimeupb4    =  5.071332e-09
tdiff = 3.369361e-09
iavg                =  -3.584593e-05 from=  1.520358e-09 to=  4.892080e-09
iavg = -3.58459e-05
tdiffb = 3.384123e-09
iavgb               =  -3.642508e-05 from=  1.600655e-09 to=  4.986080e-09
iavgb = -3.64251e-05
Note: No ".plot", ".print", or ".fourier" lines; no simulations run
