
Circuit: *pulseloop

Doing analysis at TEMP = 27.000000 and TNOM = 27.000000

Note: Starting dynamic gmin stepping
Trying gmin =   1.0000E-03 Note: One successful gmin step
Trying gmin =   1.0000E-04 Note: One successful gmin step
Trying gmin =   1.0000E-05 Warning: Further gmin increment
Trying gmin =   5.6234E-05 Note: One successful gmin step
Trying gmin =   2.3714E-05 Note: One successful gmin step
Trying gmin =   6.4938E-06 Note: One successful gmin step
Trying gmin =   9.3057E-07 Note: One successful gmin step
Trying gmin =   9.3057E-08 Note: One successful gmin step
Trying gmin =   9.3057E-09 Note: One successful gmin step
Trying gmin =   9.3057E-10 Note: One successful gmin step
Trying gmin =   9.3057E-11 Note: One successful gmin step
Trying gmin =   9.3057E-12 Note: One successful gmin step
Trying gmin =   2.9427E-12 Note: One successful gmin step
Trying gmin =   1.0000E-12 Note: One successful gmin step
Note: Dynamic gmin stepping completed

Initial Transient Solution
--------------------------

Node                                   Voltage
----                                   -------
pos_supply                                 1.8
xpg1.reset_loop                            1.8
xpg1.critical_node                     1.74017
neg_supply                                   0
snoise                                       0
outb                               9.68599e-07
xpg1.invo                          2.45993e-06
xpg1.xe                                    1.8
outa                               9.68599e-07
xpg2.reset_loop                            1.8
xpg2.critical_node                     1.74017
xpg2.invo                          2.45993e-06
xpg2.xe                                    1.8
xpg3.reset_loop                            1.8
xpg3.critical_node                     1.74017
npoutb                             9.68599e-07
xpg3.invo                          2.45993e-06
xpg3.xe                                    1.8
npouta                             9.68599e-07
xpg4.reset_loop                            1.8
xpg4.critical_node                         1.8
xpg4.invo                          9.68599e-07
xpg4.xe                                    1.8
xpg5.reset_loop                            1.8
xpg5.critical_node                     1.74017
upb                                9.68599e-07
xpg5.invo                          2.45993e-06
xpg5.xe                                    1.8
upa                                9.68599e-07
xpg6.reset_loop                            1.8
xpg6.critical_node                     1.74017
xpg6.invo                          2.45993e-06
xpg6.xe                                    1.8
v2#branch                                    0
v4#branch                          9.76073e-09
v3#branch                         -9.76073e-09



No. of Data Rows : 5724
responsetimea1      =  5.189624e-10
responsetimea2      =  5.652025e-10
responsetimea3      =  7.452919e-10
responsetimea4      =  7.944356e-10
responsetimeb1      =  5.996694e-10
responsetimeb2      =  6.554392e-10
responsetimeb3      =  8.298683e-10
responsetimeb4      =  8.877376e-10
npresponsetimea1    =  5.199174e-10
npresponsetimea2    =  5.654197e-10
npresponsetimea3    =  7.455169e-10
npresponsetimea4    =  7.939067e-10
npresponsetimeb1    =  6.235321e-10
npresponsetimeb2    =  6.498765e-10
npresponsetimeb3    =  2.320045e-09
npresponsetimeb4    =  2.349928e-09
responsetimeupa1    =  6.015902e-10
responsetimeupa2    =  6.609785e-10
responsetimeupa3    =  8.310822e-10
responsetimeupa4    =  8.892072e-10
responsetimeupb1    =  6.825822e-10
responsetimeupb2    =  7.413164e-10
responsetimeupb3    =  9.149817e-10
responsetimeupb4    =  9.728284e-10
tdiff = 2.754732e-10
iavg                =  -4.492252e-04 from=  5.189624e-10 to=  8.000000e-10
iavg = -4.49225e-04
tdiffb = 2.880682e-10
iavgb               =  -4.134792e-04 from=  5.996694e-10 to=  8.936886e-10
iavgb = -4.13479e-04
Note: No ".plot", ".print", or ".fourier" lines; no simulations run
