
Circuit: *pulseloop

Doing analysis at TEMP = 27.000000 and TNOM = 27.000000

Warning: v3: no DC value, transient time 0 value used

Initial Transient Solution
--------------------------

Node                                   Voltage
----                                   -------
pos_supply                                   0
xpg1.reset_loop                   -8.12365e-17
xpg1.critical_node                -8.80841e-17
neg_supply                                   0
snoise                                       0
outb                              -8.03416e-17
xpg1.invo                         -9.97178e-17
xpg1.xe                           -8.12365e-17
outa                              -8.20934e-17
xpg2.reset_loop                   -7.77454e-17
xpg2.critical_node                -8.26566e-17
xpg2.invo                         -9.75528e-17
xpg2.xe                           -7.77454e-17
xpg3.reset_loop                    4.42443e-15
xpg3.critical_node                 1.71154e-15
npoutb                             1.04917e-18
xpg3.invo                          4.44647e-15
xpg3.xe                            4.42443e-15
npouta                             2.18895e-15
xpg4.reset_loop                      1.586e-19
xpg4.critical_node                 2.86647e-18
xpg4.invo                         -4.27022e-20
xpg4.xe                              1.586e-19
xpg5.reset_loop                    5.35403e-14
xpg5.critical_node                 3.93795e-15
upb                                 9.4555e-14
xpg5.invo                         -2.60077e-14
xpg5.xe                            5.35403e-14
upa                                9.64704e-14
xpg6.reset_loop                    5.25477e-14
xpg6.critical_node                 4.57034e-15
xpg6.invo                         -2.53868e-14
xpg6.xe                            5.25445e-14
v2#branch                                    0
v4#branch                          7.88613e-25
v3#branch                         -7.88613e-25



No. of Data Rows : 9490
responsetimea1      =  1.107662e-08
responsetimea2      =  1.112778e-08
responsetimea3      =  1.209332e-08
responsetimea4      =  1.210045e-08
responsetimeb1      =  9.935476e-09
responsetimeb2      =  9.975572e-09
responsetimeb3      =  1.130965e-08
responsetimeb4      =  1.136919e-08
npresponsetimea1    =  1.108584e-08
npresponsetimea2    =  1.112918e-08
npresponsetimea3    =  1.164631e-08
npresponsetimea4    =  1.168239e-08

Error: measure  npresponsetimeb1  (WHEN) : out of interval
 meas tran npresponsetimeb1 when v(npoutb)=1.2 cross=1 failed!


Error: measure  npresponsetimeb2  (WHEN) : out of interval
 meas tran npresponsetimeb2 when v(npoutb)=1.2 cross=2 failed!


Error: measure  npresponsetimeb3  (WHEN) : out of interval
 meas tran npresponsetimeb3 when v(npoutb)=1.2 cross=3 failed!


Error: measure  npresponsetimeb4  (WHEN) : out of interval
 meas tran npresponsetimeb4 when v(npoutb)=1.2 cross=4 failed!

responsetimeupa1    =  9.959123e-09
responsetimeupa2    =  9.991472e-09
responsetimeupa3    =  1.131577e-08
responsetimeupa4    =  1.137333e-08
responsetimeupb1    =  9.439349e-09
responsetimeupb2    =  9.480516e-09
responsetimeupb3    =  1.021552e-08
responsetimeupb4    =  1.026021e-08
tdiff = 1.023830e-09
iavg                =  -7.841401e-05 from=  1.107662e-08 to=  1.210070e-08
iavg = -7.84140e-05
tdiffb = 1.433714e-09
iavgb               =  -4.343974e-05 from=  9.935476e-09 to=  1.137336e-08
iavgb = -4.34397e-05
Note: No ".plot", ".print", or ".fourier" lines; no simulations run
