
Circuit: *pulseloop

Doing analysis at TEMP = 27.000000 and TNOM = 27.000000

Warning: v3: no DC value, transient time 0 value used

Initial Transient Solution
--------------------------

Node                                   Voltage
----                                   -------
pos_supply                                   0
xpg1.reset_loop                   -8.12365e-17
xpg1.critical_node                -8.80841e-17
neg_supply                                   0
snoise                                       0
outb                              -8.03416e-17
xpg1.invo                         -9.97178e-17
xpg1.xe                           -8.12365e-17
outa                              -8.20934e-17
xpg2.reset_loop                   -7.77454e-17
xpg2.critical_node                -8.26566e-17
xpg2.invo                         -9.75528e-17
xpg2.xe                           -7.77454e-17
xpg3.reset_loop                    4.42443e-15
xpg3.critical_node                 1.71154e-15
npoutb                             1.04917e-18
xpg3.invo                          4.44647e-15
xpg3.xe                            4.42443e-15
npouta                             2.18895e-15
xpg4.reset_loop                      1.586e-19
xpg4.critical_node                 2.86647e-18
xpg4.invo                         -4.27022e-20
xpg4.xe                              1.586e-19
xpg5.reset_loop                    5.35403e-14
xpg5.critical_node                 3.93795e-15
upb                                 9.4555e-14
xpg5.invo                         -2.60077e-14
xpg5.xe                            5.35403e-14
upa                                9.64704e-14
xpg6.reset_loop                    5.25477e-14
xpg6.critical_node                 4.57034e-15
xpg6.invo                         -2.53868e-14
xpg6.xe                            5.25445e-14
v2#branch                                    0
v4#branch                          7.88613e-25
v3#branch                         -7.88613e-25



No. of Data Rows : 20104
responsetimea1      =  1.987595e-08
responsetimea2      =  1.989051e-08
responsetimea3      =  2.694807e-08
responsetimea4      =  2.699753e-08
responsetimeb1      =  1.998692e-08
responsetimeb2      =  2.003832e-08
responsetimeb3      =  2.703201e-08
responsetimeb4      =  2.709188e-08
npresponsetimea1    =  1.986486e-08
npresponsetimea2    =  1.987913e-08
npresponsetimea3    =  2.695046e-08
npresponsetimea4    =  2.699974e-08

Error: measure  npresponsetimeb1  (WHEN) : out of interval
 meas tran npresponsetimeb1 when v(npoutb)=1.2 cross=1 failed!


Error: measure  npresponsetimeb2  (WHEN) : out of interval
 meas tran npresponsetimeb2 when v(npoutb)=1.2 cross=2 failed!


Error: measure  npresponsetimeb3  (WHEN) : out of interval
 meas tran npresponsetimeb3 when v(npoutb)=1.2 cross=3 failed!


Error: measure  npresponsetimeb4  (WHEN) : out of interval
 meas tran npresponsetimeb4 when v(npoutb)=1.2 cross=4 failed!

responsetimeupa1    =  1.997843e-08
responsetimeupa2    =  2.002694e-08
responsetimeupa3    =  2.703682e-08
responsetimeupa4    =  2.709523e-08
responsetimeupb1    =  9.157724e-09
responsetimeupb2    =  9.175568e-09
responsetimeupb3    =  2.006250e-08
responsetimeupb4    =  2.012568e-08
tdiff = 7.121580e-09
iavg                =  -2.231478e-05 from=  1.987595e-08 to=  2.700000e-08
iavg = -2.23148e-05
tdiffb = 7.104960e-09
iavgb               =  -2.358847e-05 from=  1.998692e-08 to=  2.709908e-08
iavgb = -2.35885e-05
Note: No ".plot", ".print", or ".fourier" lines; no simulations run
