
Circuit: *pulseloop

Doing analysis at TEMP = 27.000000 and TNOM = 27.000000

Note: Starting dynamic gmin stepping
Trying gmin =   1.0000E-03 Note: One successful gmin step
Trying gmin =   1.0000E-04 Note: One successful gmin step
Trying gmin =   1.0000E-05 Warning: Further gmin increment
Trying gmin =   5.6234E-05 Note: One successful gmin step
Trying gmin =   2.3714E-05 Note: One successful gmin step
Trying gmin =   6.4938E-06 Note: One successful gmin step
Trying gmin =   9.3057E-07 Note: One successful gmin step
Trying gmin =   9.3057E-08 Note: One successful gmin step
Trying gmin =   9.3057E-09 Note: One successful gmin step
Trying gmin =   9.3057E-10 Note: One successful gmin step
Trying gmin =   9.3057E-11 Note: One successful gmin step
Trying gmin =   9.3057E-12 Note: One successful gmin step
Trying gmin =   2.9427E-12 Note: One successful gmin step
Trying gmin =   1.0000E-12 Note: One successful gmin step
Note: Dynamic gmin stepping completed

Initial Transient Solution
--------------------------

Node                                   Voltage
----                                   -------
pos_supply                                 1.8
xpg1.reset_loop                            1.8
xpg1.critical_node                     1.74017
neg_supply                                   0
snoise                                       0
outb                               9.68599e-07
xpg1.invo                          2.45993e-06
xpg1.xe                                    1.8
outa                               9.68599e-07
xpg2.reset_loop                            1.8
xpg2.critical_node                     1.74017
xpg2.invo                          2.45993e-06
xpg2.xe                                    1.8
xpg3.reset_loop                            1.8
xpg3.critical_node                     1.74017
npoutb                             9.68599e-07
xpg3.invo                          2.45993e-06
xpg3.xe                                    1.8
npouta                             9.68599e-07
xpg4.reset_loop                            1.8
xpg4.critical_node                         1.8
xpg4.invo                          9.68599e-07
xpg4.xe                                    1.8
xpg5.reset_loop                            1.8
xpg5.critical_node                     1.74017
upb                                9.68599e-07
xpg5.invo                          2.45993e-06
xpg5.xe                                    1.8
upa                                9.68599e-07
xpg6.reset_loop                            1.8
xpg6.critical_node                     1.74017
xpg6.invo                          2.45993e-06
xpg6.xe                                    1.8
v2#branch                                    0
v4#branch                          9.76073e-09
v3#branch                         -9.76073e-09



No. of Data Rows : 9660
responsetimea1      =  3.202473e-10
responsetimea2      =  3.757800e-10
responsetimea3      =  2.189792e-09
responsetimea4      =  2.220722e-09
responsetimeb1      =  4.009535e-10
responsetimeb2      =  4.606068e-10
responsetimeb3      =  2.271565e-09
responsetimeb4      =  2.326894e-09
npresponsetimea1    =  3.211513e-10
npresponsetimea2    =  3.765293e-10
npresponsetimea3    =  2.189731e-09
npresponsetimea4    =  2.219303e-09
npresponsetimeb1    =  1.837809e-08
npresponsetimeb2    =  1.839939e-08
npresponsetimeb3    =  2.893434e-08
npresponsetimeb4    =  2.897409e-08
responsetimeupa1    =  4.034113e-10
responsetimeupa2    =  4.630379e-10
responsetimeupa3    =  2.273619e-09
responsetimeupa4    =  2.330814e-09
responsetimeupb1    =  4.838040e-10
responsetimeupb2    =  5.431542e-10
responsetimeupb3    =  2.357368e-09
responsetimeupb4    =  2.414623e-09
tdiff = 1.900475e-09
iavg                =  -6.404359e-05 from=  3.202473e-10 to=  2.221000e-09
iavg = -6.40436e-05
tdiffb = 1.925941e-09
iavgb               =  -5.686472e-05 from=  4.009535e-10 to=  2.329818e-09
iavgb = -5.68647e-05
Note: No ".plot", ".print", or ".fourier" lines; no simulations run
