
Circuit: *pulseloop

Doing analysis at TEMP = 27.000000 and TNOM = 27.000000

Note: Starting dynamic gmin stepping
Trying gmin =   1.0000E-03 Note: One successful gmin step
Trying gmin =   1.0000E-04 Note: One successful gmin step
Trying gmin =   1.0000E-05 Warning: Further gmin increment
Trying gmin =   5.6234E-05 Note: One successful gmin step
Trying gmin =   2.3714E-05 Note: One successful gmin step
Trying gmin =   6.4938E-06 Note: One successful gmin step
Trying gmin =   9.3057E-07 Note: One successful gmin step
Trying gmin =   9.3057E-08 Note: One successful gmin step
Trying gmin =   9.3057E-09 Note: One successful gmin step
Trying gmin =   9.3057E-10 Note: One successful gmin step
Trying gmin =   9.3057E-11 Note: One successful gmin step
Trying gmin =   9.3057E-12 Note: One successful gmin step
Trying gmin =   2.9427E-12 Note: One successful gmin step
Trying gmin =   1.0000E-12 Note: One successful gmin step
Note: Dynamic gmin stepping completed

Initial Transient Solution
--------------------------

Node                                   Voltage
----                                   -------
pos_supply                                 1.8
xpg1.reset_loop                            1.8
xpg1.critical_node                     1.74017
neg_supply                                   0
snoise                                       0
outb                               9.68599e-07
xpg1.invo                          2.45993e-06
xpg1.xe                                    1.8
outa                               9.68599e-07
xpg2.reset_loop                            1.8
xpg2.critical_node                     1.74017
xpg2.invo                          2.45993e-06
xpg2.xe                                    1.8
xpg3.reset_loop                            1.8
xpg3.critical_node                     1.74017
npoutb                             9.68599e-07
xpg3.invo                          2.45993e-06
xpg3.xe                                    1.8
npouta                             9.68599e-07
xpg4.reset_loop                            1.8
xpg4.critical_node                         1.8
xpg4.invo                          9.68599e-07
xpg4.xe                                    1.8
xpg5.reset_loop                            1.8
xpg5.critical_node                     1.74017
upb                                9.68599e-07
xpg5.invo                          2.45993e-06
xpg5.xe                                    1.8
upa                                9.68599e-07
xpg6.reset_loop                            1.8
xpg6.critical_node                     1.74017
xpg6.invo                          2.45993e-06
xpg6.xe                                    1.8
v2#branch                                    0
v4#branch                          9.76073e-09
v3#branch                         -9.76073e-09



No. of Data Rows : 4628
responsetimea1      =  9.459536e-11
responsetimea2      =  1.536208e-10
responsetimea3      =  2.110773e-10
responsetimea4      =  2.580677e-10
responsetimeb1      =  1.823611e-10
responsetimeb2      =  2.330065e-10
responsetimeb3      =  2.904690e-10
responsetimeb4      =  3.487760e-10
npresponsetimea1    =  9.559554e-11
npresponsetimea2    =  1.540505e-10
npresponsetimea3    =  2.105371e-10
npresponsetimea4    =  2.661092e-10
npresponsetimeb1    =  1.943667e-10
npresponsetimeb2    =  2.406533e-10
npresponsetimeb3    =  6.040547e-09
npresponsetimeb4    =  6.074104e-09
responsetimeupa1    =  1.787561e-10
responsetimeupa2    =  2.368536e-10
responsetimeupa3    =  2.903264e-10
responsetimeupa4    =  3.411519e-10
responsetimeupb1    =  2.670888e-10
responsetimeupb2    =  3.056789e-10
responsetimeupb3    =  3.697806e-10
responsetimeupb4    =  4.304866e-10
tdiff = 1.634723e-10
iavg                =  -7.487611e-04 from=  9.459536e-11 to=  2.600000e-10
iavg = -7.48761e-04
tdiffb = 1.664149e-10
iavgb               =  -7.143590e-04 from=  1.823611e-10 to=  3.547679e-10
iavgb = -7.14359e-04
Note: No ".plot", ".print", or ".fourier" lines; no simulations run
