
Circuit: *pulseloop

Doing analysis at TEMP = 27.000000 and TNOM = 27.000000

Note: Starting dynamic gmin stepping
Trying gmin =   1.0000E-03 Note: One successful gmin step
Trying gmin =   1.0000E-04 Note: One successful gmin step
Trying gmin =   1.0000E-05 Warning: Further gmin increment
Trying gmin =   5.6234E-05 Note: One successful gmin step
Trying gmin =   2.3714E-05 Note: One successful gmin step
Trying gmin =   6.4938E-06 Note: One successful gmin step
Trying gmin =   9.3057E-07 Note: One successful gmin step
Trying gmin =   9.3057E-08 Note: One successful gmin step
Trying gmin =   9.3057E-09 Note: One successful gmin step
Trying gmin =   9.3057E-10 Note: One successful gmin step
Trying gmin =   9.3057E-11 Note: One successful gmin step
Trying gmin =   9.3057E-12 Note: One successful gmin step
Trying gmin =   2.9427E-12 Note: One successful gmin step
Trying gmin =   1.0000E-12 Note: One successful gmin step
Note: Dynamic gmin stepping completed

Initial Transient Solution
--------------------------

Node                                   Voltage
----                                   -------
pos_supply                                 1.8
xpg1.reset_loop                            1.8
xpg1.critical_node                     1.74017
neg_supply                                   0
snoise                                       0
outb                               9.68599e-07
xpg1.invo                          2.45993e-06
xpg1.xe                                    1.8
outa                               9.68599e-07
xpg2.reset_loop                            1.8
xpg2.critical_node                     1.74017
xpg2.invo                          2.45993e-06
xpg2.xe                                    1.8
xpg3.reset_loop                            1.8
xpg3.critical_node                     1.74017
npoutb                             9.68599e-07
xpg3.invo                          2.45993e-06
xpg3.xe                                    1.8
npouta                             9.68599e-07
xpg4.reset_loop                            1.8
xpg4.critical_node                         1.8
xpg4.invo                          9.68599e-07
xpg4.xe                                    1.8
xpg5.reset_loop                            1.8
xpg5.critical_node                     1.74017
upb                                9.68599e-07
xpg5.invo                          2.45993e-06
xpg5.xe                                    1.8
upa                                9.68599e-07
xpg6.reset_loop                            1.8
xpg6.critical_node                     1.74017
xpg6.invo                          2.45993e-06
xpg6.xe                                    1.8
v2#branch                                    0
v4#branch                          9.76073e-09
v3#branch                         -9.76073e-09

doAnalyses: TRAN:  Timestep too small; time = 3.58e-09, timestep = 1.25e-23: trouble with node "xpg3.reset_loop"


tran simulation(s) aborted
responsetimea1      =  1.704823e-10
responsetimea2      =  2.264314e-10
responsetimea3      =  4.816126e-10
responsetimea4      =  5.291141e-10
responsetimeb1      =  2.524170e-10
responsetimeb2      =  3.104970e-10
responsetimeb3      =  5.647030e-10
responsetimeb4      =  6.240241e-10
npresponsetimea1    =  1.715681e-10
npresponsetimea2    =  2.278131e-10
npresponsetimea3    =  4.833444e-10
npresponsetimea4    =  5.301100e-10
npresponsetimeb1    =  3.105956e-09
npresponsetimeb2    =  3.111980e-09

Error: measure  npresponsetimeb3  (WHEN) : out of interval
 meas tran npresponsetimeb3 when v(npoutb)=1.2 cross=3 failed!


Error: measure  npresponsetimeb4  (WHEN) : out of interval
 meas tran npresponsetimeb4 when v(npoutb)=1.2 cross=4 failed!

responsetimeupa1    =  2.550474e-10
responsetimeupa2    =  3.127577e-10
responsetimeupa3    =  5.680985e-10
responsetimeupa4    =  6.275591e-10
responsetimeupb1    =  3.366138e-10
responsetimeupb2    =  3.934583e-10
responsetimeupb3    =  6.515289e-10
responsetimeupb4    =  7.113137e-10
tdiff = 3.586318e-10
iavg                =  -3.136384e-04 from=  1.704823e-10 to=  5.302056e-10
iavg = -3.13638e-04
tdiffb = 3.716071e-10
iavgb               =  -2.774781e-04 from=  2.524170e-10 to=  6.257715e-10
iavgb = -2.77478e-04
Note: No ".plot", ".print", or ".fourier" lines; no simulations run
