
Circuit: *pulseloop

Doing analysis at TEMP = 27.000000 and TNOM = 27.000000

Note: Starting dynamic gmin stepping
Trying gmin =   1.0000E-03 Note: One successful gmin step
Trying gmin =   1.0000E-04 Note: One successful gmin step
Trying gmin =   1.0000E-05 Warning: Further gmin increment
Trying gmin =   5.6234E-05 Note: One successful gmin step
Trying gmin =   2.3714E-05 Note: One successful gmin step
Trying gmin =   6.4938E-06 Note: One successful gmin step
Trying gmin =   9.3057E-07 Note: One successful gmin step
Trying gmin =   9.3057E-08 Note: One successful gmin step
Trying gmin =   9.3057E-09 Note: One successful gmin step
Trying gmin =   9.3057E-10 Note: One successful gmin step
Trying gmin =   9.3057E-11 Note: One successful gmin step
Trying gmin =   9.3057E-12 Note: One successful gmin step
Trying gmin =   2.9427E-12 Note: One successful gmin step
Trying gmin =   1.0000E-12 Note: One successful gmin step
Note: Dynamic gmin stepping completed

Initial Transient Solution
--------------------------

Node                                   Voltage
----                                   -------
pos_supply                                 1.8
xpg1.reset_loop                            1.8
xpg1.critical_node                     1.74017
neg_supply                                   0
snoise                                       0
outb                               9.68599e-07
xpg1.invo                          2.45993e-06
xpg1.xe                                    1.8
outa                               9.68599e-07
xpg2.reset_loop                            1.8
xpg2.critical_node                     1.74017
xpg2.invo                          2.45993e-06
xpg2.xe                                    1.8
xpg3.reset_loop                            1.8
xpg3.critical_node                     1.74017
npoutb                             9.68599e-07
xpg3.invo                          2.45993e-06
xpg3.xe                                    1.8
npouta                             9.68599e-07
xpg4.reset_loop                            1.8
xpg4.critical_node                         1.8
xpg4.invo                          9.68599e-07
xpg4.xe                                    1.8
xpg5.reset_loop                            1.8
xpg5.critical_node                     1.74017
upb                                9.68599e-07
xpg5.invo                          2.45993e-06
xpg5.xe                                    1.8
upa                                9.68599e-07
xpg6.reset_loop                            1.8
xpg6.critical_node                     1.74017
xpg6.invo                          2.45993e-06
xpg6.xe                                    1.8
v2#branch                                    0
v4#branch                          9.76073e-09
v3#branch                         -9.76073e-09



No. of Data Rows : 1886
responsetimea1      =  1.284104e-10
responsetimea2      =  1.962713e-10
responsetimea3      =  4.970263e-10
responsetimea4      =  5.380453e-10
responsetimeb1      =  2.063291e-10
responsetimeb2      =  2.679111e-10
responsetimeb3      =  5.862253e-10
responsetimeb4      =  6.297439e-10
npresponsetimea1    =  1.298022e-10
npresponsetimea2    =  1.975280e-10
npresponsetimea3    =  4.979949e-10
npresponsetimea4    =  5.383648e-10
npresponsetimeb1    =  5.878098e-10
npresponsetimeb2    =  6.415431e-10
npresponsetimeb3    =  8.904958e-10
npresponsetimeb4    =  9.373278e-10
responsetimeupa1    =  2.135049e-10
responsetimeupa2    =  2.728209e-10
responsetimeupa3    =  5.818941e-10
responsetimeupa4    =  6.411246e-10
responsetimeupb1    =  2.955184e-10
responsetimeupb2    =  3.528356e-10
responsetimeupb3    =  6.674278e-10
responsetimeupb4    =  7.106475e-10
tdiff = 4.096349e-10
iavg                =  -3.008590e-04 from=  1.284104e-10 to=  5.400000e-10
iavg = -3.00859e-04
tdiffb = 4.234148e-10
iavgb               =  -3.423579e-04 from=  2.063291e-10 to=  6.339458e-10
iavgb = -3.42358e-04
Note: No ".plot", ".print", or ".fourier" lines; no simulations run
