
Circuit: *pulseloop

Doing analysis at TEMP = 27.000000 and TNOM = 27.000000

Note: Starting dynamic gmin stepping
Trying gmin =   1.0000E-03 Note: One successful gmin step
Trying gmin =   1.0000E-04 Note: One successful gmin step
Trying gmin =   1.0000E-05 Warning: Further gmin increment
Trying gmin =   5.6234E-05 Note: One successful gmin step
Trying gmin =   2.3714E-05 Note: One successful gmin step
Trying gmin =   6.4938E-06 Note: One successful gmin step
Trying gmin =   9.3057E-07 Note: One successful gmin step
Trying gmin =   9.3057E-08 Note: One successful gmin step
Trying gmin =   9.3057E-09 Note: One successful gmin step
Trying gmin =   9.3057E-10 Note: One successful gmin step
Trying gmin =   9.3057E-11 Note: One successful gmin step
Trying gmin =   9.3057E-12 Note: One successful gmin step
Trying gmin =   2.9427E-12 Note: One successful gmin step
Trying gmin =   1.0000E-12 Note: One successful gmin step
Note: Dynamic gmin stepping completed

Initial Transient Solution
--------------------------

Node                                   Voltage
----                                   -------
pos_supply                                 1.8
xpg1.reset_loop                            1.8
xpg1.critical_node                     1.74017
neg_supply                                   0
snoise                                       0
outb                               9.68599e-07
xpg1.invo                          2.45993e-06
xpg1.xe                                    1.8
outa                               9.68599e-07
xpg2.reset_loop                            1.8
xpg2.critical_node                     1.74017
xpg2.invo                          2.45993e-06
xpg2.xe                                    1.8
xpg3.reset_loop                            1.8
xpg3.critical_node                     1.74017
npoutb                             9.68599e-07
xpg3.invo                          2.45993e-06
xpg3.xe                                    1.8
npouta                             9.68599e-07
xpg4.reset_loop                            1.8
xpg4.critical_node                         1.8
xpg4.invo                          9.68599e-07
xpg4.xe                                    1.8
xpg5.reset_loop                            1.8
xpg5.critical_node                     1.74017
upb                                9.68599e-07
xpg5.invo                          2.45993e-06
xpg5.xe                                    1.8
upa                                9.68599e-07
xpg6.reset_loop                            1.8
xpg6.critical_node                     1.74017
xpg6.invo                          2.45993e-06
xpg6.xe                                    1.8
v2#branch                                    0
v4#branch                          9.76073e-09
v3#branch                         -9.76073e-09



No. of Data Rows : 3198
responsetimea1      =  4.282510e-10
responsetimea2      =  5.159751e-10
responsetimea3      =  9.852161e-10
responsetimea4      =  1.042610e-09
responsetimeb1      =  5.120477e-10
responsetimeb2      =  5.838414e-10
responsetimeb3      =  1.068918e-09
responsetimeb4      =  1.115193e-09
npresponsetimea1    =  4.293433e-10
npresponsetimea2    =  5.174696e-10
npresponsetimea3    =  9.862360e-10
npresponsetimea4    =  1.043294e-09
npresponsetimeb1    =  2.745297e-09
npresponsetimeb2    =  2.773761e-09
npresponsetimeb3    =  3.172588e-09
npresponsetimeb4    =  3.222274e-09
responsetimeupa1    =  5.132568e-10
responsetimeupa2    =  5.876236e-10
responsetimeupa3    =  1.072263e-09
responsetimeupa4    =  1.131094e-09
responsetimeupb1    =  5.953608e-10
responsetimeupb2    =  6.571564e-10
responsetimeupb3    =  1.157675e-09
responsetimeupb4    =  1.215332e-09
tdiff = 6.143590e-10
iavg                =  -3.235537e-05 from=  4.282510e-10 to=  1.043420e-09
iavg = -3.23554e-05
tdiffb = 6.031453e-10
iavgb               =  -1.857067e-05 from=  5.120477e-10 to=  1.116016e-09
iavgb = -1.85707e-05
Note: No ".plot", ".print", or ".fourier" lines; no simulations run
