
Circuit: *pulseloop

Doing analysis at TEMP = 27.000000 and TNOM = 27.000000

Note: Starting dynamic gmin stepping
Trying gmin =   1.0000E-03 Note: One successful gmin step
Trying gmin =   1.0000E-04 Note: One successful gmin step
Trying gmin =   1.0000E-05 Warning: Further gmin increment
Trying gmin =   5.6234E-05 Note: One successful gmin step
Trying gmin =   2.3714E-05 Note: One successful gmin step
Trying gmin =   6.4938E-06 Note: One successful gmin step
Trying gmin =   9.3057E-07 Note: One successful gmin step
Trying gmin =   9.3057E-08 Note: One successful gmin step
Trying gmin =   9.3057E-09 Note: One successful gmin step
Trying gmin =   9.3057E-10 Note: One successful gmin step
Trying gmin =   9.3057E-11 Note: One successful gmin step
Trying gmin =   9.3057E-12 Note: One successful gmin step
Trying gmin =   2.9427E-12 Note: One successful gmin step
Trying gmin =   1.0000E-12 Note: One successful gmin step
Note: Dynamic gmin stepping completed

Initial Transient Solution
--------------------------

Node                                   Voltage
----                                   -------
pos_supply                                 1.8
xpg1.reset_loop                            1.8
xpg1.critical_node                     1.74017
neg_supply                                   0
snoise                                       0
outb                               9.68599e-07
xpg1.invo                          2.45993e-06
xpg1.xe                                    1.8
outa                               9.68599e-07
xpg2.reset_loop                            1.8
xpg2.critical_node                     1.74017
xpg2.invo                          2.45993e-06
xpg2.xe                                    1.8
xpg3.reset_loop                            1.8
xpg3.critical_node                     1.74017
npoutb                             9.68599e-07
xpg3.invo                          2.45993e-06
xpg3.xe                                    1.8
npouta                             9.68599e-07
xpg4.reset_loop                            1.8
xpg4.critical_node                         1.8
xpg4.invo                          9.68599e-07
xpg4.xe                                    1.8
xpg5.reset_loop                            1.8
xpg5.critical_node                     1.74017
upb                                9.68599e-07
xpg5.invo                          2.45993e-06
xpg5.xe                                    1.8
upa                                9.68599e-07
xpg6.reset_loop                            1.8
xpg6.critical_node                     1.74017
xpg6.invo                          2.45993e-06
xpg6.xe                                    1.8
v2#branch                                    0
v4#branch                          9.76073e-09
v3#branch                         -9.76073e-09



No. of Data Rows : 2349
responsetimea1      =  1.997538e-10
responsetimea2      =  2.615207e-10
responsetimea3      =  5.457895e-10
responsetimea4      =  6.055662e-10
responsetimeb1      =  2.835688e-10
responsetimeb2      =  3.352094e-10
responsetimeb3      =  6.241413e-10
responsetimeb4      =  6.821400e-10
npresponsetimea1    =  2.007991e-10
npresponsetimea2    =  2.629897e-10
npresponsetimea3    =  3.471809e-10
npresponsetimea4    =  4.046395e-10
npresponsetimeb1    =  1.249699e-09
npresponsetimeb2    =  1.324472e-09
npresponsetimeb3    =  5.833832e-09
npresponsetimeb4    =  5.882114e-09
responsetimeupa1    =  2.831425e-10
responsetimeupa2    =  3.425469e-10
responsetimeupa3    =  4.583872e-10
responsetimeupa4    =  4.841381e-10
responsetimeupb1    =  3.644955e-10
responsetimeupb2    =  4.240421e-10
responsetimeupb3    =  5.407730e-10
responsetimeupb4    =  5.966933e-10
tdiff = 4.058124e-10
iavg                =  -4.382965e-04 from=  1.997538e-10 to=  6.064406e-10
iavg = -4.38296e-04
tdiffb = 3.985712e-10
iavgb               =  -4.965272e-04 from=  2.835688e-10 to=  6.825838e-10
iavgb = -4.96527e-04
Note: No ".plot", ".print", or ".fourier" lines; no simulations run
