
Circuit: *pulseloop

Doing analysis at TEMP = 27.000000 and TNOM = 27.000000

Note: Starting dynamic gmin stepping
Trying gmin =   1.0000E-03 Note: One successful gmin step
Trying gmin =   1.0000E-04 Note: One successful gmin step
Trying gmin =   1.0000E-05 Warning: Further gmin increment
Trying gmin =   5.6234E-05 Note: One successful gmin step
Trying gmin =   2.3714E-05 Note: One successful gmin step
Trying gmin =   6.4938E-06 Note: One successful gmin step
Trying gmin =   9.3057E-07 Note: One successful gmin step
Trying gmin =   9.3057E-08 Note: One successful gmin step
Trying gmin =   9.3057E-09 Note: One successful gmin step
Trying gmin =   9.3057E-10 Note: One successful gmin step
Trying gmin =   9.3057E-11 Note: One successful gmin step
Trying gmin =   9.3057E-12 Note: One successful gmin step
Trying gmin =   2.9427E-12 Note: One successful gmin step
Trying gmin =   1.0000E-12 Note: One successful gmin step
Note: Dynamic gmin stepping completed

Initial Transient Solution
--------------------------

Node                                   Voltage
----                                   -------
pos_supply                                 1.8
xpg1.reset_loop                            1.8
xpg1.critical_node                     1.74017
neg_supply                                   0
snoise                                       0
outb                               9.68599e-07
xpg1.invo                          2.45993e-06
xpg1.xe                                    1.8
outa                               9.68599e-07
xpg2.reset_loop                            1.8
xpg2.critical_node                     1.74017
xpg2.invo                          2.45993e-06
xpg2.xe                                    1.8
xpg3.reset_loop                            1.8
xpg3.critical_node                     1.74017
npoutb                             9.68599e-07
xpg3.invo                          2.45993e-06
xpg3.xe                                    1.8
npouta                             9.68599e-07
xpg4.reset_loop                            1.8
xpg4.critical_node                         1.8
xpg4.invo                          9.68599e-07
xpg4.xe                                    1.8
xpg5.reset_loop                            1.8
xpg5.critical_node                     1.74017
upb                                9.68599e-07
xpg5.invo                          2.45993e-06
xpg5.xe                                    1.8
upa                                9.68599e-07
xpg6.reset_loop                            1.8
xpg6.critical_node                     1.74017
xpg6.invo                          2.45993e-06
xpg6.xe                                    1.8
v2#branch                                    0
v4#branch                          9.76073e-09
v3#branch                         -9.76073e-09



No. of Data Rows : 2770
responsetimea1      =  1.697638e-10
responsetimea2      =  2.292649e-10
responsetimea3      =  5.040171e-10
responsetimea4      =  5.625811e-10
responsetimeb1      =  2.531308e-10
responsetimeb2      =  2.977248e-10
responsetimeb3      =  5.912185e-10
responsetimeb4      =  6.495510e-10
npresponsetimea1    =  1.708483e-10
npresponsetimea2    =  2.293522e-10
npresponsetimea3    =  3.032619e-10
npresponsetimea4    =  3.643981e-10
npresponsetimeb1    =  8.559587e-10
npresponsetimeb2    =  8.924322e-10
npresponsetimeb3    =  1.355091e-09
npresponsetimeb4    =  1.486606e-09
responsetimeupa1    =  2.556501e-10
responsetimeupa2    =  3.130800e-10
responsetimeupa3    =  3.937080e-10
responsetimeupa4    =  4.316638e-10
responsetimeupb1    =  3.376351e-10
responsetimeupb2    =  3.954318e-10
responsetimeupb3    =  4.741435e-10
responsetimeupb4    =  5.318927e-10
tdiff = 3.928173e-10
iavg                =  1.236015e-04 from=  1.697638e-10 to=  5.631651e-10
iavg = 1.236015e-04
tdiffb = 3.964202e-10
iavgb               =  -3.005867e-06 from=  2.531308e-10 to=  6.545459e-10
iavgb = -3.00587e-06
Note: No ".plot", ".print", or ".fourier" lines; no simulations run
