
Circuit: *pulseloop

Doing analysis at TEMP = 27.000000 and TNOM = 27.000000

Note: Starting dynamic gmin stepping
Trying gmin =   1.0000E-03 Note: One successful gmin step
Trying gmin =   1.0000E-04 Note: One successful gmin step
Trying gmin =   1.0000E-05 Warning: Further gmin increment
Trying gmin =   5.6234E-05 Note: One successful gmin step
Trying gmin =   2.3714E-05 Note: One successful gmin step
Trying gmin =   6.4938E-06 Note: One successful gmin step
Trying gmin =   9.3057E-07 Note: One successful gmin step
Trying gmin =   9.3057E-08 Note: One successful gmin step
Trying gmin =   9.3057E-09 Note: One successful gmin step
Trying gmin =   9.3057E-10 Note: One successful gmin step
Trying gmin =   9.3057E-11 Note: One successful gmin step
Trying gmin =   9.3057E-12 Note: One successful gmin step
Trying gmin =   2.9427E-12 Note: One successful gmin step
Trying gmin =   1.0000E-12 Note: One successful gmin step
Note: Dynamic gmin stepping completed

Initial Transient Solution
--------------------------

Node                                   Voltage
----                                   -------
pos_supply                                 1.8
xpg1.reset_loop                            1.8
xpg1.critical_node                     1.74017
neg_supply                                   0
snoise                                       0
outb                               9.68599e-07
xpg1.invo                          2.45993e-06
xpg1.xe                                    1.8
outa                               9.68599e-07
xpg2.reset_loop                            1.8
xpg2.critical_node                     1.74017
xpg2.invo                          2.45993e-06
xpg2.xe                                    1.8
xpg3.reset_loop                            1.8
xpg3.critical_node                     1.74017
npoutb                             9.68599e-07
xpg3.invo                          2.45993e-06
xpg3.xe                                    1.8
npouta                             9.68599e-07
xpg4.reset_loop                            1.8
xpg4.critical_node                         1.8
xpg4.invo                          9.68599e-07
xpg4.xe                                    1.8
xpg5.reset_loop                            1.8
xpg5.critical_node                     1.74017
upb                                9.68599e-07
xpg5.invo                          2.45993e-06
xpg5.xe                                    1.8
upa                                9.68599e-07
xpg6.reset_loop                            1.8
xpg6.critical_node                     1.74017
xpg6.invo                          2.45993e-06
xpg6.xe                                    1.8
v2#branch                                    0
v4#branch                          9.76073e-09
v3#branch                         -9.76073e-09

doAnalyses: TRAN:  Timestep too small; time = 1.64e-09, timestep = 1.25e-23: cause unrecorded.


tran simulation(s) aborted
responsetimea1      =  3.087539e-10
responsetimea2      =  3.796669e-10
responsetimea3      =  4.383853e-10
responsetimea4      =  4.805222e-10
responsetimeb1      =  3.933307e-10
responsetimeb2      =  4.454911e-10
responsetimeb3      =  5.309565e-10
responsetimeb4      =  6.594200e-10
npresponsetimea1    =  3.098629e-10
npresponsetimea2    =  3.800208e-10
npresponsetimea3    =  4.324763e-10
npresponsetimea4    =  5.898438e-10
npresponsetimeb1    =  5.187970e-10
npresponsetimeb2    =  5.754953e-10
npresponsetimeb3    =  9.011602e-10
npresponsetimeb4    =  9.409319e-10
responsetimeupa1    =  3.932317e-10
responsetimeupa2    =  4.539470e-10
responsetimeupa3    =  5.166931e-10
responsetimeupa4    =  6.590966e-10
responsetimeupb1    =  4.771043e-10
responsetimeupb2    =  5.217202e-10
responsetimeupb3    =  6.100255e-10
responsetimeupb4    =  7.283733e-10
tdiff = 1.717683e-10
iavg                =  -7.955202e-04 from=  3.087539e-10 to=  4.810000e-10
iavg = -7.95520e-04
tdiffb = 2.660893e-10
iavgb               =  -8.662590e-04 from=  3.933307e-10 to=  6.600000e-10
iavgb = -8.66259e-04
Note: No ".plot", ".print", or ".fourier" lines; no simulations run
