
Circuit: *pulseloop

Doing analysis at TEMP = 27.000000 and TNOM = 27.000000

Note: Starting dynamic gmin stepping
Trying gmin =   1.0000E-03 Note: One successful gmin step
Trying gmin =   1.0000E-04 Note: One successful gmin step
Trying gmin =   1.0000E-05 Warning: Further gmin increment
Trying gmin =   5.6234E-05 Note: One successful gmin step
Trying gmin =   2.3714E-05 Note: One successful gmin step
Trying gmin =   6.4938E-06 Note: One successful gmin step
Trying gmin =   9.3057E-07 Note: One successful gmin step
Trying gmin =   9.3057E-08 Note: One successful gmin step
Trying gmin =   9.3057E-09 Note: One successful gmin step
Trying gmin =   9.3057E-10 Note: One successful gmin step
Trying gmin =   9.3057E-11 Note: One successful gmin step
Trying gmin =   9.3057E-12 Note: One successful gmin step
Trying gmin =   2.9427E-12 Note: One successful gmin step
Trying gmin =   1.0000E-12 Note: One successful gmin step
Note: Dynamic gmin stepping completed

Initial Transient Solution
--------------------------

Node                                   Voltage
----                                   -------
pos_supply                                 1.8
xpg1.reset_loop                            1.8
xpg1.critical_node                     1.74017
neg_supply                                   0
snoise                                       0
outb                               9.68599e-07
xpg1.invo                          2.45993e-06
xpg1.xe                                    1.8
outa                               9.68599e-07
xpg2.reset_loop                            1.8
xpg2.critical_node                     1.74017
xpg2.invo                          2.45993e-06
xpg2.xe                                    1.8
xpg3.reset_loop                            1.8
xpg3.critical_node                     1.74017
npoutb                             9.68599e-07
xpg3.invo                          2.45993e-06
xpg3.xe                                    1.8
npouta                             9.68599e-07
xpg4.reset_loop                            1.8
xpg4.critical_node                         1.8
xpg4.invo                          9.68599e-07
xpg4.xe                                    1.8
xpg5.reset_loop                            1.8
xpg5.critical_node                     1.74017
upb                                9.68599e-07
xpg5.invo                          2.45993e-06
xpg5.xe                                    1.8
upa                                9.68599e-07
xpg6.reset_loop                            1.8
xpg6.critical_node                     1.74017
xpg6.invo                          2.45993e-06
xpg6.xe                                    1.8
v2#branch                                    0
v4#branch                          9.76073e-09
v3#branch                         -9.76073e-09



No. of Data Rows : 9710
responsetimea1      =  1.161176e-09
responsetimea2      =  1.197518e-09
responsetimea3      =  3.398552e-09
responsetimea4      =  3.445469e-09
responsetimeb1      =  1.240070e-09
responsetimeb2      =  1.298191e-09
responsetimeb3      =  3.481334e-09
responsetimeb4      =  3.541023e-09
npresponsetimea1    =  1.162357e-09
npresponsetimea2    =  1.198139e-09
npresponsetimea3    =  3.399461e-09
npresponsetimea4    =  3.445949e-09
npresponsetimeb1    =  1.772330e-08
npresponsetimeb2    =  1.775387e-08

Error: measure  npresponsetimeb3  (WHEN) : out of interval
 meas tran npresponsetimeb3 when v(npoutb)=1.2 cross=3 failed!


Error: measure  npresponsetimeb4  (WHEN) : out of interval
 meas tran npresponsetimeb4 when v(npoutb)=1.2 cross=4 failed!

responsetimeupa1    =  1.242904e-09
responsetimeupa2    =  1.302525e-09
responsetimeupa3    =  3.483770e-09
responsetimeupa4    =  3.543368e-09
responsetimeupb1    =  1.323719e-09
responsetimeupb2    =  1.382892e-09
responsetimeupb3    =  3.566822e-09
responsetimeupb4    =  3.625713e-09
tdiff = 2.284293e-09
iavg                =  -5.142877e-05 from=  1.161176e-09 to=  3.447000e-09
iavg = -5.14288e-05
tdiffb = 2.300953e-09
iavgb               =  -4.931312e-05 from=  1.240070e-09 to=  3.542898e-09
iavgb = -4.93131e-05
Note: No ".plot", ".print", or ".fourier" lines; no simulations run
