
Circuit: *pulseloop

Doing analysis at TEMP = 27.000000 and TNOM = 27.000000

Note: Starting dynamic gmin stepping
Trying gmin =   1.0000E-03 Note: One successful gmin step
Trying gmin =   1.0000E-04 Note: One successful gmin step
Trying gmin =   1.0000E-05 Warning: Further gmin increment
Trying gmin =   5.6234E-05 Note: One successful gmin step
Trying gmin =   2.3714E-05 Note: One successful gmin step
Trying gmin =   6.4938E-06 Note: One successful gmin step
Trying gmin =   9.3057E-07 Note: One successful gmin step
Trying gmin =   9.3057E-08 Note: One successful gmin step
Trying gmin =   9.3057E-09 Note: One successful gmin step
Trying gmin =   9.3057E-10 Note: One successful gmin step
Trying gmin =   9.3057E-11 Note: One successful gmin step
Trying gmin =   9.3057E-12 Note: One successful gmin step
Trying gmin =   2.9427E-12 Note: One successful gmin step
Trying gmin =   1.0000E-12 Note: One successful gmin step
Note: Dynamic gmin stepping completed

Initial Transient Solution
--------------------------

Node                                   Voltage
----                                   -------
pos_supply                                 1.8
xpg1.reset_loop                            1.8
xpg1.critical_node                     1.74017
neg_supply                                   0
snoise                                       0
outb                               9.68599e-07
xpg1.invo                          2.45993e-06
xpg1.xe                                    1.8
outa                               9.68599e-07
xpg2.reset_loop                            1.8
xpg2.critical_node                     1.74017
xpg2.invo                          2.45993e-06
xpg2.xe                                    1.8
xpg3.reset_loop                            1.8
xpg3.critical_node                     1.74017
npoutb                             9.68599e-07
xpg3.invo                          2.45993e-06
xpg3.xe                                    1.8
npouta                             9.68599e-07
xpg4.reset_loop                            1.8
xpg4.critical_node                         1.8
xpg4.invo                          9.68599e-07
xpg4.xe                                    1.8
xpg5.reset_loop                            1.8
xpg5.critical_node                     1.74017
upb                                9.68599e-07
xpg5.invo                          2.45993e-06
xpg5.xe                                    1.8
upa                                9.68599e-07
xpg6.reset_loop                            1.8
xpg6.critical_node                     1.74017
xpg6.invo                          2.45993e-06
xpg6.xe                                    1.8
v2#branch                                    0
v4#branch                          9.76073e-09
v3#branch                         -9.76073e-09



No. of Data Rows : 2371
responsetimea1      =  7.291515e-11
responsetimea2      =  1.338941e-10
responsetimea3      =  1.868079e-10
responsetimea4      =  2.568491e-10
responsetimeb1      =  1.609348e-10
responsetimeb2      =  2.194534e-10
responsetimeb3      =  2.617869e-10
responsetimeb4      =  3.295754e-10
npresponsetimea1    =  7.398344e-11
npresponsetimea2    =  1.362817e-10
npresponsetimea3    =  1.857178e-10
npresponsetimea4    =  2.682403e-10
npresponsetimeb1    =  6.788804e-10
npresponsetimeb2    =  7.880857e-10
npresponsetimeb3    =  1.028444e-09
npresponsetimeb4    =  1.169982e-09
responsetimeupa1    =  1.573449e-10
responsetimeupa2    =  2.159198e-10
responsetimeupa3    =  2.655813e-10
responsetimeupa4    =  3.314820e-10
responsetimeupb1    =  2.453016e-10
responsetimeupb2    =  2.849143e-10
responsetimeupb3    =  3.441397e-10
responsetimeupb4    =  4.051767e-10
tdiff = 1.839340e-10
iavg                =  -6.727412e-04 from=  7.291515e-11 to=  2.600000e-10
iavg = -6.72741e-04
tdiffb = 1.686406e-10
iavgb               =  -6.428798e-04 from=  1.609348e-10 to=  3.308085e-10
iavgb = -6.42880e-04
Note: No ".plot", ".print", or ".fourier" lines; no simulations run
