
Circuit: *pulseloop

Doing analysis at TEMP = 27.000000 and TNOM = 27.000000

Note: Starting dynamic gmin stepping
Trying gmin =   1.0000E-03 Note: One successful gmin step
Trying gmin =   1.0000E-04 Note: One successful gmin step
Trying gmin =   1.0000E-05 Warning: Further gmin increment
Trying gmin =   5.6234E-05 Note: One successful gmin step
Trying gmin =   2.3714E-05 Note: One successful gmin step
Trying gmin =   6.4938E-06 Note: One successful gmin step
Trying gmin =   9.3057E-07 Note: One successful gmin step
Trying gmin =   9.3057E-08 Note: One successful gmin step
Trying gmin =   9.3057E-09 Note: One successful gmin step
Trying gmin =   9.3057E-10 Note: One successful gmin step
Trying gmin =   9.3057E-11 Note: One successful gmin step
Trying gmin =   9.3057E-12 Note: One successful gmin step
Trying gmin =   2.9427E-12 Note: One successful gmin step
Trying gmin =   1.0000E-12 Note: One successful gmin step
Note: Dynamic gmin stepping completed

Initial Transient Solution
--------------------------

Node                                   Voltage
----                                   -------
pos_supply                                 1.8
xpg1.reset_loop                            1.8
xpg1.critical_node                     1.74017
neg_supply                                   0
snoise                                       0
outb                               9.68599e-07
xpg1.invo                          2.45993e-06
xpg1.xe                                    1.8
outa                               9.68599e-07
xpg2.reset_loop                            1.8
xpg2.critical_node                     1.74017
xpg2.invo                          2.45993e-06
xpg2.xe                                    1.8
xpg3.reset_loop                            1.8
xpg3.critical_node                     1.74017
npoutb                             9.68599e-07
xpg3.invo                          2.45993e-06
xpg3.xe                                    1.8
npouta                             9.68599e-07
xpg4.reset_loop                            1.8
xpg4.critical_node                         1.8
xpg4.invo                          9.68599e-07
xpg4.xe                                    1.8
xpg5.reset_loop                            1.8
xpg5.critical_node                     1.74017
upb                                9.68599e-07
xpg5.invo                          2.45993e-06
xpg5.xe                                    1.8
upa                                9.68599e-07
xpg6.reset_loop                            1.8
xpg6.critical_node                     1.74017
xpg6.invo                          2.45993e-06
xpg6.xe                                    1.8
v2#branch                                    0
v4#branch                          9.76073e-09
v3#branch                         -9.76073e-09



No. of Data Rows : 5701
responsetimea1      =  4.875354e-10
responsetimea2      =  5.323859e-10
responsetimea3      =  1.008005e-09
responsetimea4      =  1.047921e-09
responsetimeb1      =  5.674572e-10
responsetimeb2      =  6.266994e-10
responsetimeb3      =  1.090246e-09
responsetimeb4      =  1.149925e-09
npresponsetimea1    =  4.890203e-10
npresponsetimea2    =  5.331472e-10
npresponsetimea3    =  1.010282e-09
npresponsetimea4    =  1.049378e-09
npresponsetimeb1    =  2.187586e-09
npresponsetimeb2    =  2.204617e-09
npresponsetimeb3    =  5.461025e-09
npresponsetimeb4    =  5.495248e-09
responsetimeupa1    =  5.710688e-10
responsetimeupa2    =  6.308170e-10
responsetimeupa3    =  1.094507e-09
responsetimeupa4    =  1.152728e-09
responsetimeupb1    =  6.524075e-10
responsetimeupb2    =  7.104273e-10
responsetimeupb3    =  1.178315e-09
responsetimeupb4    =  1.235947e-09
tdiff = 5.603856e-10
iavg                =  -1.980824e-04 from=  4.875354e-10 to=  1.050698e-09
iavg = -1.98082e-04
tdiffb = 5.824678e-10
iavgb               =  -1.875640e-04 from=  5.674572e-10 to=  1.156114e-09
iavgb = -1.87564e-04
Note: No ".plot", ".print", or ".fourier" lines; no simulations run
