
Circuit: *pulseloop

Doing analysis at TEMP = 27.000000 and TNOM = 27.000000

Note: Starting dynamic gmin stepping
Trying gmin =   1.0000E-03 Note: One successful gmin step
Trying gmin =   1.0000E-04 Note: One successful gmin step
Trying gmin =   1.0000E-05 Warning: Further gmin increment
Trying gmin =   5.6234E-05 Note: One successful gmin step
Trying gmin =   2.3714E-05 Note: One successful gmin step
Trying gmin =   6.4938E-06 Note: One successful gmin step
Trying gmin =   9.3057E-07 Note: One successful gmin step
Trying gmin =   9.3057E-08 Note: One successful gmin step
Trying gmin =   9.3057E-09 Note: One successful gmin step
Trying gmin =   9.3057E-10 Note: One successful gmin step
Trying gmin =   9.3057E-11 Note: One successful gmin step
Trying gmin =   9.3057E-12 Note: One successful gmin step
Trying gmin =   2.9427E-12 Note: One successful gmin step
Trying gmin =   1.0000E-12 Note: One successful gmin step
Note: Dynamic gmin stepping completed

Initial Transient Solution
--------------------------

Node                                   Voltage
----                                   -------
pos_supply                                 1.8
xpg1.reset_loop                            1.8
xpg1.critical_node                     1.74017
neg_supply                                   0
snoise                                       0
outb                               9.68599e-07
xpg1.invo                          2.45993e-06
xpg1.xe                                    1.8
outa                               9.68599e-07
xpg2.reset_loop                            1.8
xpg2.critical_node                     1.74017
xpg2.invo                          2.45993e-06
xpg2.xe                                    1.8
xpg3.reset_loop                            1.8
xpg3.critical_node                     1.74017
npoutb                             9.68599e-07
xpg3.invo                          2.45993e-06
xpg3.xe                                    1.8
npouta                             9.68599e-07
xpg4.reset_loop                            1.8
xpg4.critical_node                         1.8
xpg4.invo                          9.68599e-07
xpg4.xe                                    1.8
xpg5.reset_loop                            1.8
xpg5.critical_node                     1.74017
upb                                9.68599e-07
xpg5.invo                          2.45993e-06
xpg5.xe                                    1.8
upa                                9.68599e-07
xpg6.reset_loop                            1.8
xpg6.critical_node                     1.74017
xpg6.invo                          2.45993e-06
xpg6.xe                                    1.8
v2#branch                                    0
v4#branch                          9.76073e-09
v3#branch                         -9.76073e-09



No. of Data Rows : 1661
responsetimea1      =  7.204189e-11
responsetimea2      =  1.335562e-10
responsetimea3      =  6.701107e-10
responsetimea4      =  7.177071e-10
responsetimeb1      =  1.546550e-10
responsetimeb2      =  2.095348e-10
responsetimeb3      =  7.547215e-10
responsetimeb4      =  8.096293e-10
npresponsetimea1    =  7.362393e-11
npresponsetimea2    =  1.338205e-10
npresponsetimea3    =  6.709551e-10
npresponsetimea4    =  7.183805e-10
npresponsetimeb1    =  1.645506e-09
npresponsetimeb2    =  1.703898e-09
npresponsetimeb3    =  2.349440e-09
npresponsetimeb4    =  2.404497e-09
responsetimeupa1    =  1.570574e-10
responsetimeupa2    =  2.151327e-10
responsetimeupa3    =  7.561224e-10
responsetimeupa4    =  8.146409e-10
responsetimeupb1    =  2.383964e-10
responsetimeupb2    =  2.961700e-10
responsetimeupb3    =  8.393548e-10
responsetimeupb4    =  8.980986e-10
tdiff = 6.456652e-10
iavg                =  -1.967581e-04 from=  7.204189e-11 to=  7.200000e-10
iavg = -1.96758e-04
tdiffb = 6.549743e-10
iavgb               =  -1.802653e-04 from=  1.546550e-10 to=  8.127867e-10
iavgb = -1.80265e-04
Note: No ".plot", ".print", or ".fourier" lines; no simulations run
