
Circuit: *pulseloop

Doing analysis at TEMP = 27.000000 and TNOM = 27.000000

Note: Starting dynamic gmin stepping
Trying gmin =   1.0000E-03 Note: One successful gmin step
Trying gmin =   1.0000E-04 Note: One successful gmin step
Trying gmin =   1.0000E-05 Warning: Further gmin increment
Trying gmin =   5.6234E-05 Note: One successful gmin step
Trying gmin =   2.3714E-05 Note: One successful gmin step
Trying gmin =   6.4938E-06 Note: One successful gmin step
Trying gmin =   9.3057E-07 Note: One successful gmin step
Trying gmin =   9.3057E-08 Note: One successful gmin step
Trying gmin =   9.3057E-09 Note: One successful gmin step
Trying gmin =   9.3057E-10 Note: One successful gmin step
Trying gmin =   9.3057E-11 Note: One successful gmin step
Trying gmin =   9.3057E-12 Note: One successful gmin step
Trying gmin =   2.9427E-12 Note: One successful gmin step
Trying gmin =   1.0000E-12 Note: One successful gmin step
Note: Dynamic gmin stepping completed

Initial Transient Solution
--------------------------

Node                                   Voltage
----                                   -------
pos_supply                                 1.8
xpg1.reset_loop                            1.8
xpg1.critical_node                     1.74017
neg_supply                                   0
snoise                                       0
outb                               9.68599e-07
xpg1.invo                          2.45993e-06
xpg1.xe                                    1.8
outa                               9.68599e-07
xpg2.reset_loop                            1.8
xpg2.critical_node                     1.74017
xpg2.invo                          2.45993e-06
xpg2.xe                                    1.8
xpg3.reset_loop                            1.8
xpg3.critical_node                     1.74017
npoutb                             9.68599e-07
xpg3.invo                          2.45993e-06
xpg3.xe                                    1.8
npouta                             9.68599e-07
xpg4.reset_loop                            1.8
xpg4.critical_node                         1.8
xpg4.invo                          9.68599e-07
xpg4.xe                                    1.8
xpg5.reset_loop                            1.8
xpg5.critical_node                     1.74017
upb                                9.68599e-07
xpg5.invo                          2.45993e-06
xpg5.xe                                    1.8
upa                                9.68599e-07
xpg6.reset_loop                            1.8
xpg6.critical_node                     1.74017
xpg6.invo                          2.45993e-06
xpg6.xe                                    1.8
v2#branch                                    0
v4#branch                          9.76073e-09
v3#branch                         -9.76073e-09



No. of Data Rows : 2080
responsetimea1      =  4.335980e-10
responsetimea2      =  4.568491e-10
responsetimea3      =  9.215757e-10
responsetimea4      =  9.806401e-10
responsetimeb1      =  5.159736e-10
responsetimeb2      =  5.682531e-10
responsetimeb3      =  1.003393e-09
responsetimeb4      =  1.062612e-09
npresponsetimea1    =  4.356782e-10
npresponsetimea2    =  4.564284e-10
npresponsetimea3    =  9.229344e-10
npresponsetimea4    =  9.809907e-10
npresponsetimeb1    =  1.338750e-09
npresponsetimeb2    =  1.361932e-09
npresponsetimeb3    =  2.071624e-09
npresponsetimeb4    =  2.083864e-09
responsetimeupa1    =  5.316572e-10
responsetimeupa2    =  5.820465e-10
responsetimeupa3    =  1.007282e-09
responsetimeupa4    =  1.066726e-09
responsetimeupb1    =  6.129278e-10
responsetimeupb2    =  6.706004e-10
responsetimeupb3    =  1.092295e-09
responsetimeupb4    =  1.149292e-09
tdiff = 5.470421e-10
iavg                =  -2.380175e-04 from=  4.335980e-10 to=  9.810000e-10
iavg = -2.38018e-04
tdiffb = 5.466384e-10
iavgb               =  -2.740042e-04 from=  5.159736e-10 to=  1.063373e-09
iavgb = -2.74004e-04
Note: No ".plot", ".print", or ".fourier" lines; no simulations run
