
Circuit: *pulseloop

Doing analysis at TEMP = 27.000000 and TNOM = 27.000000

Note: Starting dynamic gmin stepping
Trying gmin =   1.0000E-03 Note: One successful gmin step
Trying gmin =   1.0000E-04 Note: One successful gmin step
Trying gmin =   1.0000E-05 Warning: Further gmin increment
Trying gmin =   5.6234E-05 Note: One successful gmin step
Trying gmin =   2.3714E-05 Note: One successful gmin step
Trying gmin =   6.4938E-06 Note: One successful gmin step
Trying gmin =   9.3057E-07 Note: One successful gmin step
Trying gmin =   9.3057E-08 Note: One successful gmin step
Trying gmin =   9.3057E-09 Note: One successful gmin step
Trying gmin =   9.3057E-10 Note: One successful gmin step
Trying gmin =   9.3057E-11 Note: One successful gmin step
Trying gmin =   9.3057E-12 Note: One successful gmin step
Trying gmin =   2.9427E-12 Note: One successful gmin step
Trying gmin =   1.0000E-12 Note: One successful gmin step
Note: Dynamic gmin stepping completed

Initial Transient Solution
--------------------------

Node                                   Voltage
----                                   -------
pos_supply                                 1.8
xpg1.reset_loop                            1.8
xpg1.critical_node                     1.74017
neg_supply                                   0
snoise                                       0
outb                               9.68599e-07
xpg1.invo                          2.45993e-06
xpg1.xe                                    1.8
outa                               9.68599e-07
xpg2.reset_loop                            1.8
xpg2.critical_node                     1.74017
xpg2.invo                          2.45993e-06
xpg2.xe                                    1.8
xpg3.reset_loop                            1.8
xpg3.critical_node                     1.74017
npoutb                             9.68599e-07
xpg3.invo                          2.45993e-06
xpg3.xe                                    1.8
npouta                             9.68599e-07
xpg4.reset_loop                            1.8
xpg4.critical_node                         1.8
xpg4.invo                          9.68599e-07
xpg4.xe                                    1.8
xpg5.reset_loop                            1.8
xpg5.critical_node                     1.74017
upb                                9.68599e-07
xpg5.invo                          2.45993e-06
xpg5.xe                                    1.8
upa                                9.68599e-07
xpg6.reset_loop                            1.8
xpg6.critical_node                     1.74017
xpg6.invo                          2.45993e-06
xpg6.xe                                    1.8
v2#branch                                    0
v4#branch                          9.76073e-09
v3#branch                         -9.76073e-09



No. of Data Rows : 1847
responsetimea1      =  2.199140e-10
responsetimea2      =  2.200563e-10
responsetimea3      =  2.200786e-10
responsetimea4      =  2.898422e-10
responsetimeb1      =  3.001286e-10
responsetimeb2      =  3.609261e-10
responsetimeb3      =  5.575368e-10
responsetimeb4      =  6.145960e-10
npresponsetimea1    =  2.212688e-10
npresponsetimea2    =  2.910206e-10
npresponsetimea3    =  4.697494e-10
npresponsetimea4    =  5.202372e-10
npresponsetimeb1    =  1.107822e-09
npresponsetimeb2    =  1.138415e-09
npresponsetimeb3    =  2.385296e-09
npresponsetimeb4    =  2.417529e-09
responsetimeupa1    =  3.030443e-10
responsetimeupa2    =  3.644750e-10
responsetimeupa3    =  5.555237e-10
responsetimeupa4    =  6.137233e-10
responsetimeupb1    =  3.839995e-10
responsetimeupb2    =  4.428180e-10
responsetimeupb3    =  6.407045e-10
responsetimeupb4    =  6.897496e-10
tdiff = 6.992820e-11
iavg                =  -7.642118e-04 from=  2.199140e-10 to=  2.936778e-10
iavg = -7.64212e-04
tdiffb = 3.144674e-10
iavgb               =  -4.465181e-04 from=  3.001286e-10 to=  6.180772e-10
iavgb = -4.46518e-04
Note: No ".plot", ".print", or ".fourier" lines; no simulations run
