
Circuit: *pulseloop

Doing analysis at TEMP = 27.000000 and TNOM = 27.000000

Note: Starting dynamic gmin stepping
Trying gmin =   1.0000E-03 Note: One successful gmin step
Trying gmin =   1.0000E-04 Note: One successful gmin step
Trying gmin =   1.0000E-05 Warning: Further gmin increment
Trying gmin =   5.6234E-05 Note: One successful gmin step
Trying gmin =   2.3714E-05 Note: One successful gmin step
Trying gmin =   6.4938E-06 Note: One successful gmin step
Trying gmin =   9.3057E-07 Note: One successful gmin step
Trying gmin =   9.3057E-08 Note: One successful gmin step
Trying gmin =   9.3057E-09 Note: One successful gmin step
Trying gmin =   9.3057E-10 Note: One successful gmin step
Trying gmin =   9.3057E-11 Note: One successful gmin step
Trying gmin =   9.3057E-12 Note: One successful gmin step
Trying gmin =   2.9427E-12 Note: One successful gmin step
Trying gmin =   1.0000E-12 Note: One successful gmin step
Note: Dynamic gmin stepping completed

Initial Transient Solution
--------------------------

Node                                   Voltage
----                                   -------
pos_supply                                 1.8
xpg1.reset_loop                            1.8
xpg1.critical_node                     1.74017
neg_supply                                   0
snoise                                       0
outb                               9.68599e-07
xpg1.invo                          2.45993e-06
xpg1.xe                                    1.8
outa                               9.68599e-07
xpg2.reset_loop                            1.8
xpg2.critical_node                     1.74017
xpg2.invo                          2.45993e-06
xpg2.xe                                    1.8
xpg3.reset_loop                            1.8
xpg3.critical_node                     1.74017
npoutb                             9.68599e-07
xpg3.invo                          2.45993e-06
xpg3.xe                                    1.8
npouta                             9.68599e-07
xpg4.reset_loop                            1.8
xpg4.critical_node                         1.8
xpg4.invo                          9.68599e-07
xpg4.xe                                    1.8
xpg5.reset_loop                            1.8
xpg5.critical_node                     1.74017
upb                                9.68599e-07
xpg5.invo                          2.45993e-06
xpg5.xe                                    1.8
upa                                9.68599e-07
xpg6.reset_loop                            1.8
xpg6.critical_node                     1.74017
xpg6.invo                          2.45993e-06
xpg6.xe                                    1.8
v2#branch                                    0
v4#branch                          9.76073e-09
v3#branch                         -9.76073e-09

doAnalyses: TRAN:  Timestep too small; time = 5.3e-09, timestep = 1.25e-23: trouble with node "npoutb"


tran simulation(s) aborted
responsetimea1      =  1.228238e-10
responsetimea2      =  1.894676e-10
responsetimea3      =  3.164203e-10
responsetimea4      =  4.399622e-10
responsetimeb1      =  2.029073e-10
responsetimeb2      =  2.618622e-10
responsetimeb3      =  4.086176e-10
responsetimeb4      =  5.047692e-10
npresponsetimea1    =  1.241923e-10
npresponsetimea2    =  1.898083e-10
npresponsetimea3    =  3.092173e-10
npresponsetimea4    =  4.436042e-10
npresponsetimeb1    =  4.034312e-10
npresponsetimeb2    =  4.949655e-10
npresponsetimeb3    =  5.469573e-10
npresponsetimeb4    =  6.214634e-10
responsetimeupa1    =  2.071024e-10
responsetimeupa2    =  2.663857e-10
responsetimeupa3    =  4.015700e-10
responsetimeupa4    =  6.558191e-10
responsetimeupb1    =  2.882593e-10
responsetimeupb2    =  3.463951e-10
responsetimeupb3    =  4.919729e-10
responsetimeupb4    =  7.244761e-10
tdiff = 3.171384e-10
iavg                =  -7.307693e-04 from=  1.228238e-10 to=  4.400000e-10
iavg = -7.30769e-04
tdiffb = 3.018619e-10
iavgb               =  -8.052177e-04 from=  2.029073e-10 to=  5.070586e-10
iavgb = -8.05218e-04
Note: No ".plot", ".print", or ".fourier" lines; no simulations run
