
Circuit: *pulseloop

Doing analysis at TEMP = 27.000000 and TNOM = 27.000000

Note: Starting dynamic gmin stepping
Trying gmin =   1.0000E-03 Note: One successful gmin step
Trying gmin =   1.0000E-04 Note: One successful gmin step
Trying gmin =   1.0000E-05 Warning: Further gmin increment
Trying gmin =   5.6234E-05 Note: One successful gmin step
Trying gmin =   2.3714E-05 Note: One successful gmin step
Trying gmin =   6.4938E-06 Note: One successful gmin step
Trying gmin =   9.3057E-07 Note: One successful gmin step
Trying gmin =   9.3057E-08 Note: One successful gmin step
Trying gmin =   9.3057E-09 Note: One successful gmin step
Trying gmin =   9.3057E-10 Note: One successful gmin step
Trying gmin =   9.3057E-11 Note: One successful gmin step
Trying gmin =   9.3057E-12 Note: One successful gmin step
Trying gmin =   2.9427E-12 Note: One successful gmin step
Trying gmin =   1.0000E-12 Note: One successful gmin step
Note: Dynamic gmin stepping completed

Initial Transient Solution
--------------------------

Node                                   Voltage
----                                   -------
pos_supply                                 1.8
xpg1.reset_loop                            1.8
xpg1.critical_node                     1.74017
neg_supply                                   0
snoise                                       0
outb                               9.68599e-07
xpg1.invo                          2.45993e-06
xpg1.xe                                    1.8
outa                               9.68599e-07
xpg2.reset_loop                            1.8
xpg2.critical_node                     1.74017
xpg2.invo                          2.45993e-06
xpg2.xe                                    1.8
xpg3.reset_loop                            1.8
xpg3.critical_node                     1.74017
npoutb                             9.68599e-07
xpg3.invo                          2.45993e-06
xpg3.xe                                    1.8
npouta                             9.68599e-07
xpg4.reset_loop                            1.8
xpg4.critical_node                         1.8
xpg4.invo                          9.68599e-07
xpg4.xe                                    1.8
xpg5.reset_loop                            1.8
xpg5.critical_node                     1.74017
upb                                9.68599e-07
xpg5.invo                          2.45993e-06
xpg5.xe                                    1.8
upa                                9.68599e-07
xpg6.reset_loop                            1.8
xpg6.critical_node                     1.74017
xpg6.invo                          2.45993e-06
xpg6.xe                                    1.8
v2#branch                                    0
v4#branch                          9.76073e-09
v3#branch                         -9.76073e-09



No. of Data Rows : 3225
responsetimea1      =  1.786185e-10
responsetimea2      =  2.444999e-10
responsetimea3      =  5.152995e-10
responsetimea4      =  5.750586e-10
responsetimeb1      =  2.598993e-10
responsetimeb2      =  3.210134e-10
responsetimeb3      =  6.010582e-10
responsetimeb4      =  6.445828e-10
npresponsetimea1    =  1.794698e-10
npresponsetimea2    =  2.453638e-10
npresponsetimea3    =  5.163307e-10
npresponsetimea4    =  5.755694e-10
npresponsetimeb1    =  2.837137e-10
npresponsetimeb2    =  3.160800e-10
npresponsetimeb3    =  6.533926e-10
npresponsetimeb4    =  6.685429e-10
responsetimeupa1    =  2.621165e-10
responsetimeupa2    =  3.220919e-10
responsetimeupa3    =  6.016037e-10
responsetimeupa4    =  6.607615e-10
responsetimeupb1    =  3.426599e-10
responsetimeupb2    =  4.016151e-10
responsetimeupb3    =  6.856793e-10
responsetimeupb4    =  7.445355e-10
tdiff = 3.964401e-10
iavg                =  -3.156526e-04 from=  1.786185e-10 to=  5.800000e-10
iavg = -3.15653e-04
tdiffb = 3.846835e-10
iavgb               =  -3.323459e-04 from=  2.598993e-10 to=  6.467938e-10
iavgb = -3.32346e-04
Note: No ".plot", ".print", or ".fourier" lines; no simulations run
