
Circuit: *pulseloop

Doing analysis at TEMP = 27.000000 and TNOM = 27.000000

Note: Starting dynamic gmin stepping
Trying gmin =   1.0000E-03 Note: One successful gmin step
Trying gmin =   1.0000E-04 Note: One successful gmin step
Trying gmin =   1.0000E-05 Warning: Further gmin increment
Trying gmin =   5.6234E-05 Note: One successful gmin step
Trying gmin =   2.3714E-05 Note: One successful gmin step
Trying gmin =   6.4938E-06 Note: One successful gmin step
Trying gmin =   9.3057E-07 Note: One successful gmin step
Trying gmin =   9.3057E-08 Note: One successful gmin step
Trying gmin =   9.3057E-09 Note: One successful gmin step
Trying gmin =   9.3057E-10 Note: One successful gmin step
Trying gmin =   9.3057E-11 Note: One successful gmin step
Trying gmin =   9.3057E-12 Note: One successful gmin step
Trying gmin =   2.9427E-12 Note: One successful gmin step
Trying gmin =   1.0000E-12 Note: One successful gmin step
Note: Dynamic gmin stepping completed

Initial Transient Solution
--------------------------

Node                                   Voltage
----                                   -------
pos_supply                                 1.8
xpg1.reset_loop                            1.8
xpg1.critical_node                     1.74017
neg_supply                                   0
snoise                                       0
outb                               9.68599e-07
xpg1.invo                          2.45993e-06
xpg1.xe                                    1.8
outa                               9.68599e-07
xpg2.reset_loop                            1.8
xpg2.critical_node                     1.74017
xpg2.invo                          2.45993e-06
xpg2.xe                                    1.8
xpg3.reset_loop                            1.8
xpg3.critical_node                     1.74017
npoutb                             9.68599e-07
xpg3.invo                          2.45993e-06
xpg3.xe                                    1.8
npouta                             9.68599e-07
xpg4.reset_loop                            1.8
xpg4.critical_node                         1.8
xpg4.invo                          9.68599e-07
xpg4.xe                                    1.8
xpg5.reset_loop                            1.8
xpg5.critical_node                     1.74017
upb                                9.68599e-07
xpg5.invo                          2.45993e-06
xpg5.xe                                    1.8
upa                                9.68599e-07
xpg6.reset_loop                            1.8
xpg6.critical_node                     1.74017
xpg6.invo                          2.45993e-06
xpg6.xe                                    1.8
v2#branch                                    0
v4#branch                          9.76073e-09
v3#branch                         -9.76073e-09



No. of Data Rows : 3815
responsetimea1      =  5.648986e-10
responsetimea2      =  6.168148e-10
responsetimea3      =  7.632365e-10
responsetimea4      =  8.287484e-10
responsetimeb1      =  6.462379e-10
responsetimeb2      =  7.032119e-10
responsetimeb3      =  8.461546e-10
responsetimeb4      =  9.058535e-10
npresponsetimea1    =  5.659589e-10
npresponsetimea2    =  6.170529e-10
npresponsetimea3    =  7.238203e-10
npresponsetimea4    =  7.638157e-10
npresponsetimeb1    =  6.809779e-10
npresponsetimeb2    =  7.140974e-10
npresponsetimeb3    =  3.280900e-09
npresponsetimeb4    =  3.320229e-09
responsetimeupa1    =  6.484855e-10
responsetimeupa2    =  7.079995e-10
responsetimeupa3    =  9.178823e-10
responsetimeupa4    =  9.903056e-10
responsetimeupb1    =  7.297207e-10
responsetimeupb2    =  7.895469e-10
responsetimeupb3    =  1.000971e-09
responsetimeupb4    =  1.062241e-09
tdiff = 2.638498e-10
iavg                =  -5.505936e-04 from=  5.648986e-10 to=  8.291980e-10
iavg = -5.50594e-04
tdiffb = 2.596156e-10
iavgb               =  -5.454290e-04 from=  6.462379e-10 to=  9.073860e-10
iavgb = -5.45429e-04
Note: No ".plot", ".print", or ".fourier" lines; no simulations run
