
Circuit: *pulseloop

Doing analysis at TEMP = 27.000000 and TNOM = 27.000000

Note: Starting dynamic gmin stepping
Trying gmin =   1.0000E-03 Note: One successful gmin step
Trying gmin =   1.0000E-04 Note: One successful gmin step
Trying gmin =   1.0000E-05 Warning: Further gmin increment
Trying gmin =   5.6234E-05 Note: One successful gmin step
Trying gmin =   2.3714E-05 Note: One successful gmin step
Trying gmin =   6.4938E-06 Note: One successful gmin step
Trying gmin =   9.3057E-07 Note: One successful gmin step
Trying gmin =   9.3057E-08 Note: One successful gmin step
Trying gmin =   9.3057E-09 Note: One successful gmin step
Trying gmin =   9.3057E-10 Note: One successful gmin step
Trying gmin =   9.3057E-11 Note: One successful gmin step
Trying gmin =   9.3057E-12 Note: One successful gmin step
Trying gmin =   2.9427E-12 Note: One successful gmin step
Trying gmin =   1.0000E-12 Note: One successful gmin step
Note: Dynamic gmin stepping completed

Initial Transient Solution
--------------------------

Node                                   Voltage
----                                   -------
pos_supply                                 1.8
xpg1.reset_loop                            1.8
xpg1.critical_node                     1.74017
neg_supply                                   0
snoise                                       0
outb                               9.68599e-07
xpg1.invo                          2.45993e-06
xpg1.xe                                    1.8
outa                               9.68599e-07
xpg2.reset_loop                            1.8
xpg2.critical_node                     1.74017
xpg2.invo                          2.45993e-06
xpg2.xe                                    1.8
xpg3.reset_loop                            1.8
xpg3.critical_node                     1.74017
npoutb                             9.68599e-07
xpg3.invo                          2.45993e-06
xpg3.xe                                    1.8
npouta                             9.68599e-07
xpg4.reset_loop                            1.8
xpg4.critical_node                         1.8
xpg4.invo                          9.68599e-07
xpg4.xe                                    1.8
xpg5.reset_loop                            1.8
xpg5.critical_node                     1.74017
upb                                9.68599e-07
xpg5.invo                          2.45993e-06
xpg5.xe                                    1.8
upa                                9.68599e-07
xpg6.reset_loop                            1.8
xpg6.critical_node                     1.74017
xpg6.invo                          2.45993e-06
xpg6.xe                                    1.8
v2#branch                                    0
v4#branch                          9.76073e-09
v3#branch                         -9.76073e-09



No. of Data Rows : 1601
responsetimea1      =  1.020729e-10
responsetimea2      =  2.174981e-10
responsetimea3      =  2.670644e-10
responsetimea4      =  3.003991e-10
responsetimeb1      =  1.897002e-10
responsetimeb2      =  2.822530e-10
responsetimeb3      =  3.502732e-10
responsetimeb4      =  5.013734e-10
npresponsetimea1    =  1.030874e-10
npresponsetimea2    =  2.213115e-10
npresponsetimea3    =  2.566860e-10
npresponsetimea4    =  2.990885e-10
npresponsetimeb1    =  1.971827e-10
npresponsetimeb2    =  2.766947e-10
npresponsetimeb3    =  8.871591e-10
npresponsetimeb4    =  9.592562e-10
responsetimeupa1    =  1.859242e-10
responsetimeupa2    =  2.955678e-10
responsetimeupa3    =  4.349812e-10
responsetimeupa4    =  4.991871e-10
responsetimeupb1    =  2.724838e-10
responsetimeupb2    =  3.625287e-10
responsetimeupb3    =  5.188113e-10
responsetimeupb4    =  5.764673e-10
tdiff = 1.983262e-10
iavg                =  1.659411e-04 from=  1.020729e-10 to=  3.004490e-10
iavg = 1.659411e-04
tdiffb = 3.116732e-10
iavgb               =  -6.689434e-04 from=  1.897002e-10 to=  5.030000e-10
iavgb = -6.68943e-04
Note: No ".plot", ".print", or ".fourier" lines; no simulations run
