
Circuit: *pulseloop

Doing analysis at TEMP = 27.000000 and TNOM = 27.000000

Note: Starting dynamic gmin stepping
Trying gmin =   1.0000E-03 Note: One successful gmin step
Trying gmin =   1.0000E-04 Note: One successful gmin step
Trying gmin =   1.0000E-05 Warning: Further gmin increment
Trying gmin =   5.6234E-05 Note: One successful gmin step
Trying gmin =   2.3714E-05 Note: One successful gmin step
Trying gmin =   6.4938E-06 Note: One successful gmin step
Trying gmin =   9.3057E-07 Note: One successful gmin step
Trying gmin =   9.3057E-08 Note: One successful gmin step
Trying gmin =   9.3057E-09 Note: One successful gmin step
Trying gmin =   9.3057E-10 Note: One successful gmin step
Trying gmin =   9.3057E-11 Note: One successful gmin step
Trying gmin =   9.3057E-12 Note: One successful gmin step
Trying gmin =   2.9427E-12 Note: One successful gmin step
Trying gmin =   1.0000E-12 Note: One successful gmin step
Note: Dynamic gmin stepping completed

Initial Transient Solution
--------------------------

Node                                   Voltage
----                                   -------
pos_supply                                 1.8
xpg1.reset_loop                            1.8
xpg1.critical_node                     1.74017
neg_supply                                   0
snoise                                       0
outb                               9.68599e-07
xpg1.invo                          2.45993e-06
xpg1.xe                                    1.8
outa                               9.68599e-07
xpg2.reset_loop                            1.8
xpg2.critical_node                     1.74017
xpg2.invo                          2.45993e-06
xpg2.xe                                    1.8
xpg3.reset_loop                            1.8
xpg3.critical_node                     1.74017
npoutb                             9.68599e-07
xpg3.invo                          2.45993e-06
xpg3.xe                                    1.8
npouta                             9.68599e-07
xpg4.reset_loop                            1.8
xpg4.critical_node                         1.8
xpg4.invo                          9.68599e-07
xpg4.xe                                    1.8
xpg5.reset_loop                            1.8
xpg5.critical_node                     1.74017
upb                                9.68599e-07
xpg5.invo                          2.45993e-06
xpg5.xe                                    1.8
upa                                9.68599e-07
xpg6.reset_loop                            1.8
xpg6.critical_node                     1.74017
xpg6.invo                          2.45993e-06
xpg6.xe                                    1.8
v2#branch                                    0
v4#branch                          9.76073e-09
v3#branch                         -9.76073e-09



No. of Data Rows : 9766
responsetimea1      =  1.285199e-09
responsetimea2      =  1.326551e-09
responsetimea3      =  1.690668e-09
responsetimea4      =  1.735369e-09
responsetimeb1      =  1.365216e-09
responsetimeb2      =  1.423909e-09
responsetimeb3      =  1.773840e-09
responsetimeb4      =  1.832645e-09
npresponsetimea1    =  1.286358e-09
npresponsetimea2    =  1.327083e-09
npresponsetimea3    =  1.691959e-09
npresponsetimea4    =  1.735780e-09
npresponsetimeb1    =  3.090679e-09
npresponsetimeb2    =  3.107435e-09
npresponsetimeb3    =  2.952433e-08
npresponsetimeb4    =  2.952686e-08
responsetimeupa1    =  1.367972e-09
responsetimeupa2    =  1.427448e-09
responsetimeupa3    =  1.776703e-09
responsetimeupa4    =  1.834805e-09
responsetimeupb1    =  1.448947e-09
responsetimeupb2    =  1.508678e-09
responsetimeupb3    =  1.859527e-09
responsetimeupb4    =  1.918446e-09
tdiff = 4.501700e-10
iavg                =  -1.950595e-04 from=  1.285199e-09 to=  1.740000e-09
iavg = -1.95059e-04
tdiffb = 4.674290e-10
iavgb               =  -1.918204e-04 from=  1.365216e-09 to=  1.839527e-09
iavgb = -1.91820e-04
Note: No ".plot", ".print", or ".fourier" lines; no simulations run
