
Circuit: *pulseloop

Doing analysis at TEMP = 27.000000 and TNOM = 27.000000

Note: Starting dynamic gmin stepping
Trying gmin =   1.0000E-03 Note: One successful gmin step
Trying gmin =   1.0000E-04 Note: One successful gmin step
Trying gmin =   1.0000E-05 Warning: Further gmin increment
Trying gmin =   5.6234E-05 Note: One successful gmin step
Trying gmin =   2.3714E-05 Note: One successful gmin step
Trying gmin =   6.4938E-06 Note: One successful gmin step
Trying gmin =   9.3057E-07 Note: One successful gmin step
Trying gmin =   9.3057E-08 Note: One successful gmin step
Trying gmin =   9.3057E-09 Note: One successful gmin step
Trying gmin =   9.3057E-10 Note: One successful gmin step
Trying gmin =   9.3057E-11 Note: One successful gmin step
Trying gmin =   9.3057E-12 Note: One successful gmin step
Trying gmin =   2.9427E-12 Note: One successful gmin step
Trying gmin =   1.0000E-12 Note: One successful gmin step
Note: Dynamic gmin stepping completed

Initial Transient Solution
--------------------------

Node                                   Voltage
----                                   -------
pos_supply                                 1.8
xpg1.reset_loop                            1.8
xpg1.critical_node                     1.74017
neg_supply                                   0
snoise                                       0
outb                               9.68599e-07
xpg1.invo                          2.45993e-06
xpg1.xe                                    1.8
outa                               9.68599e-07
xpg2.reset_loop                            1.8
xpg2.critical_node                     1.74017
xpg2.invo                          2.45993e-06
xpg2.xe                                    1.8
xpg3.reset_loop                            1.8
xpg3.critical_node                     1.74017
npoutb                             9.68599e-07
xpg3.invo                          2.45993e-06
xpg3.xe                                    1.8
npouta                             9.68599e-07
xpg4.reset_loop                            1.8
xpg4.critical_node                         1.8
xpg4.invo                          9.68599e-07
xpg4.xe                                    1.8
xpg5.reset_loop                            1.8
xpg5.critical_node                     1.74017
upb                                9.68599e-07
xpg5.invo                          2.45993e-06
xpg5.xe                                    1.8
upa                                9.68599e-07
xpg6.reset_loop                            1.8
xpg6.critical_node                     1.74017
xpg6.invo                          2.45993e-06
xpg6.xe                                    1.8
v2#branch                                    0
v4#branch                          9.76073e-09
v3#branch                         -9.76073e-09



No. of Data Rows : 3845
responsetimea1      =  1.392491e-10
responsetimea2      =  1.979874e-10
responsetimea3      =  3.560463e-10
responsetimea4      =  4.338726e-10
responsetimeb1      =  2.202777e-10
responsetimeb2      =  2.775817e-10
responsetimeb3      =  4.423677e-10
responsetimeb4      =  5.048747e-10
npresponsetimea1    =  1.403366e-10
npresponsetimea2    =  1.991208e-10
npresponsetimea3    =  3.576508e-10
npresponsetimea4    =  4.357262e-10
npresponsetimeb1    =  4.518546e-10
npresponsetimeb2    =  4.964081e-10
npresponsetimeb3    =  1.330877e-09
npresponsetimeb4    =  1.374759e-09
responsetimeupa1    =  2.230322e-10
responsetimeupa2    =  2.822608e-10
responsetimeupa3    =  4.428323e-10
responsetimeupa4    =  5.063526e-10
responsetimeupb1    =  3.038156e-10
responsetimeupb2    =  3.625368e-10
responsetimeupb3    =  5.259093e-10
responsetimeupb4    =  5.845478e-10
tdiff = 2.946235e-10
iavg                =  1.132551e-05 from=  1.392491e-10 to=  4.400000e-10
iavg = 1.132551e-05
tdiffb = 2.845970e-10
iavgb               =  -5.326402e-04 from=  2.202777e-10 to=  5.077281e-10
iavgb = -5.32640e-04
Note: No ".plot", ".print", or ".fourier" lines; no simulations run
