
Circuit: *pulseloop

Doing analysis at TEMP = 27.000000 and TNOM = 27.000000

Note: Starting dynamic gmin stepping
Trying gmin =   1.0000E-03 Note: One successful gmin step
Trying gmin =   1.0000E-04 Note: One successful gmin step
Trying gmin =   1.0000E-05 Warning: Further gmin increment
Trying gmin =   5.6234E-05 Note: One successful gmin step
Trying gmin =   2.3714E-05 Note: One successful gmin step
Trying gmin =   6.4938E-06 Note: One successful gmin step
Trying gmin =   9.3057E-07 Note: One successful gmin step
Trying gmin =   9.3057E-08 Note: One successful gmin step
Trying gmin =   9.3057E-09 Note: One successful gmin step
Trying gmin =   9.3057E-10 Note: One successful gmin step
Trying gmin =   9.3057E-11 Note: One successful gmin step
Trying gmin =   9.3057E-12 Note: One successful gmin step
Trying gmin =   2.9427E-12 Note: One successful gmin step
Trying gmin =   1.0000E-12 Note: One successful gmin step
Note: Dynamic gmin stepping completed

Initial Transient Solution
--------------------------

Node                                   Voltage
----                                   -------
pos_supply                                 1.8
xpg1.reset_loop                            1.8
xpg1.critical_node                     1.74017
neg_supply                                   0
snoise                                       0
outb                               9.68599e-07
xpg1.invo                          2.45993e-06
xpg1.xe                                    1.8
outa                               9.68599e-07
xpg2.reset_loop                            1.8
xpg2.critical_node                     1.74017
xpg2.invo                          2.45993e-06
xpg2.xe                                    1.8
xpg3.reset_loop                            1.8
xpg3.critical_node                     1.74017
npoutb                             9.68599e-07
xpg3.invo                          2.45993e-06
xpg3.xe                                    1.8
npouta                             9.68599e-07
xpg4.reset_loop                            1.8
xpg4.critical_node                         1.8
xpg4.invo                          9.68599e-07
xpg4.xe                                    1.8
xpg5.reset_loop                            1.8
xpg5.critical_node                     1.74017
upb                                9.68599e-07
xpg5.invo                          2.45993e-06
xpg5.xe                                    1.8
upa                                9.68599e-07
xpg6.reset_loop                            1.8
xpg6.critical_node                     1.74017
xpg6.invo                          2.45993e-06
xpg6.xe                                    1.8
v2#branch                                    0
v4#branch                          9.76073e-09
v3#branch                         -9.76073e-09

doAnalyses: TRAN:  Timestep too small; time = 2e-09, timestep = 1.25e-23: cause unrecorded.


tran simulation(s) aborted
responsetimea1      =  2.574214e-10
responsetimea2      =  3.439310e-10
responsetimea3      =  5.595815e-10
responsetimea4      =  6.221363e-10
responsetimeb1      =  3.391086e-10
responsetimeb2      =  4.110554e-10
responsetimeb3      =  6.434118e-10
responsetimeb4      =  7.019829e-10
npresponsetimea1    =  2.581526e-10
npresponsetimea2    =  3.458384e-10
npresponsetimea3    =  4.410720e-10
npresponsetimea4    =  4.960490e-10
npresponsetimeb1    =  3.634425e-10
npresponsetimeb2    =  3.835128e-10
npresponsetimeb3    =  7.434430e-10
npresponsetimeb4    =  8.299773e-10
responsetimeupa1    =  3.409295e-10
responsetimeupa2    =  4.165022e-10
responsetimeupa3    =  5.350048e-10
responsetimeupa4    =  5.943233e-10
responsetimeupb1    =  4.211256e-10
responsetimeupb2    =  4.864376e-10
responsetimeupb3    =  6.315053e-10
responsetimeupb4    =  6.623907e-10
tdiff = 3.647149e-10
iavg                =  -4.585776e-04 from=  2.574214e-10 to=  6.224695e-10
iavg = -4.58578e-04
tdiffb = 3.628743e-10
iavgb               =  -4.491140e-04 from=  3.391086e-10 to=  7.026688e-10
iavgb = -4.49114e-04
Note: No ".plot", ".print", or ".fourier" lines; no simulations run
