
Circuit: *pulseloop

Doing analysis at TEMP = 27.000000 and TNOM = 27.000000

Note: Starting dynamic gmin stepping
Trying gmin =   1.0000E-03 Note: One successful gmin step
Trying gmin =   1.0000E-04 Note: One successful gmin step
Trying gmin =   1.0000E-05 Warning: Further gmin increment
Trying gmin =   5.6234E-05 Note: One successful gmin step
Trying gmin =   2.3714E-05 Note: One successful gmin step
Trying gmin =   6.4938E-06 Note: One successful gmin step
Trying gmin =   9.3057E-07 Note: One successful gmin step
Trying gmin =   9.3057E-08 Note: One successful gmin step
Trying gmin =   9.3057E-09 Note: One successful gmin step
Trying gmin =   9.3057E-10 Note: One successful gmin step
Trying gmin =   9.3057E-11 Note: One successful gmin step
Trying gmin =   9.3057E-12 Note: One successful gmin step
Trying gmin =   2.9427E-12 Note: One successful gmin step
Trying gmin =   1.0000E-12 Note: One successful gmin step
Note: Dynamic gmin stepping completed

Initial Transient Solution
--------------------------

Node                                   Voltage
----                                   -------
pos_supply                                 1.8
xpg1.reset_loop                            1.8
xpg1.critical_node                     1.74017
neg_supply                                   0
snoise                                       0
outb                               9.68599e-07
xpg1.invo                          2.45993e-06
xpg1.xe                                    1.8
outa                               9.68599e-07
xpg2.reset_loop                            1.8
xpg2.critical_node                     1.74017
xpg2.invo                          2.45993e-06
xpg2.xe                                    1.8
xpg3.reset_loop                            1.8
xpg3.critical_node                     1.74017
npoutb                             9.68599e-07
xpg3.invo                          2.45993e-06
xpg3.xe                                    1.8
npouta                             9.68599e-07
xpg4.reset_loop                            1.8
xpg4.critical_node                         1.8
xpg4.invo                          9.68599e-07
xpg4.xe                                    1.8
xpg5.reset_loop                            1.8
xpg5.critical_node                     1.74017
upb                                9.68599e-07
xpg5.invo                          2.45993e-06
xpg5.xe                                    1.8
upa                                9.68599e-07
xpg6.reset_loop                            1.8
xpg6.critical_node                     1.74017
xpg6.invo                          2.45993e-06
xpg6.xe                                    1.8
v2#branch                                    0
v4#branch                          9.76073e-09
v3#branch                         -9.76073e-09



No. of Data Rows : 2729
responsetimea1      =  7.635803e-11
responsetimea2      =  1.432589e-10
responsetimea3      =  2.811684e-10
responsetimea4      =  3.392602e-10
responsetimeb1      =  1.589282e-10
responsetimeb2      =  2.137403e-10
responsetimeb3      =  3.646095e-10
responsetimeb4      =  4.235647e-10
npresponsetimea1    =  7.726315e-11
npresponsetimea2    =  1.440388e-10
npresponsetimea3    =  2.599331e-10
npresponsetimea4    =  3.160909e-10
npresponsetimeb1    =  1.015693e-09
npresponsetimeb2    =  1.056753e-09
npresponsetimeb3    =  4.473034e-09
npresponsetimeb4    =  4.518365e-09
responsetimeupa1    =  1.602293e-10
responsetimeupa2    =  2.199108e-10
responsetimeupa3    =  3.525368e-10
responsetimeupa4    =  4.118742e-10
responsetimeupb1    =  2.414308e-10
responsetimeupb2    =  3.004641e-10
responsetimeupb3    =  4.369691e-10
responsetimeupb4    =  4.937970e-10
tdiff = 2.629022e-10
iavg                =  -1.947219e-04 from=  7.635803e-11 to=  3.400000e-10
iavg = -1.94722e-04
tdiffb = 2.646365e-10
iavgb               =  -1.826122e-04 from=  1.589282e-10 to=  4.257475e-10
iavgb = -1.82612e-04
Note: No ".plot", ".print", or ".fourier" lines; no simulations run
