
Circuit: *pulseloop

Doing analysis at TEMP = 27.000000 and TNOM = 27.000000

Note: Starting dynamic gmin stepping
Trying gmin =   1.0000E-03 Note: One successful gmin step
Trying gmin =   1.0000E-04 Note: One successful gmin step
Trying gmin =   1.0000E-05 Warning: Further gmin increment
Trying gmin =   5.6234E-05 Note: One successful gmin step
Trying gmin =   2.3714E-05 Note: One successful gmin step
Trying gmin =   6.4938E-06 Note: One successful gmin step
Trying gmin =   9.3057E-07 Note: One successful gmin step
Trying gmin =   9.3057E-08 Note: One successful gmin step
Trying gmin =   9.3057E-09 Note: One successful gmin step
Trying gmin =   9.3057E-10 Note: One successful gmin step
Trying gmin =   9.3057E-11 Note: One successful gmin step
Trying gmin =   9.3057E-12 Note: One successful gmin step
Trying gmin =   2.9427E-12 Note: One successful gmin step
Trying gmin =   1.0000E-12 Note: One successful gmin step
Note: Dynamic gmin stepping completed

Initial Transient Solution
--------------------------

Node                                   Voltage
----                                   -------
xpg1.1                                     1.8
xpg1.reset_loop                            1.8
xpg1.critical_node                     1.74017
snoise                                       0
outb                               9.68599e-07
xpg1.invo                          2.45993e-06
xpg1.xe                                    1.8
outa                               9.68599e-07
xpg2.1                                     1.8
xpg2.reset_loop                            1.8
xpg2.critical_node                     1.74017
xpg2.invo                          2.45993e-06
xpg2.xe                                    1.8
xpg3.1                                     1.8
xpg3.reset_loop                            1.8
xpg3.critical_node                     1.74017
npoutb                             9.68599e-07
xpg3.invo                          2.45993e-06
xpg3.xe                                    1.8
npouta                             9.68599e-07
xpg4.1                                     1.8
xpg4.reset_loop                            1.8
xpg4.critical_node                         1.8
xpg4.invo                          9.68599e-07
xpg4.xe                                    1.8
xpg5.1                                     1.8
xpg5.reset_loop                            1.8
xpg5.critical_node                     1.74017
upb                                9.68599e-07
xpg5.invo                          2.45993e-06
xpg5.xe                                    1.8
upa                                9.68599e-07
xpg6.1                                     1.8
xpg6.reset_loop                            1.8
xpg6.critical_node                     1.74017
xpg6.invo                          2.45993e-06
xpg6.xe                                    1.8
v2#branch                                    0
v.xpg6.v1#branch                  -1.74993e-09
v.xpg5.v1#branch                  -1.74993e-09
v.xpg4.v1#branch                  -1.01106e-09
v.xpg3.v1#branch                  -1.74993e-09
v.xpg2.v1#branch                  -1.74993e-09
v.xpg1.v1#branch                  -1.74993e-09



No. of Data Rows : 33130

  Measurements for Transient Analysis

responsetimea       =   1.64083e-10
responsetimea       =   3.03624e-10
responsetimea       =   5.60096e-10
responsetimea       =   6.12572e-10
responsetimeb       =   2.58461e-10
responsetimeb       =   3.72908e-10
responsetimeb       =   6.42427e-10
responsetimeb       =   7.00385e-10
npresponsetimea     =   1.65060e-10
npresponsetimea     =   3.04024e-10
npresponsetimea     =   5.61439e-10
npresponsetimea     =   6.13644e-10
npresponsetimeb     =   2.50599e-10
npresponsetimeb     =   3.33824e-10
npresponsetimeb     =   8.40461e-10
npresponsetimeb     =   8.78325e-10
responsetimeupa     =   2.47723e-10
responsetimeupa     =   3.75071e-10
responsetimeupa     =   6.44884e-10
responsetimeupa     =   7.04767e-10
responsetimeupb     =   3.42758e-10
responsetimeupb     =   4.44596e-10
responsetimeupb     =   7.28037e-10
responsetimeupb     =   7.86808e-10

Doing analysis at TEMP = 27.000000 and TNOM = 27.000000


  Measurements for Transient Analysis

responsetimea       =   1.64083e-10
responsetimea       =   3.03624e-10
responsetimea       =   5.60096e-10
responsetimea       =   6.12572e-10
responsetimeb       =   2.58461e-10
responsetimeb       =   3.72908e-10
responsetimeb       =   6.42427e-10
responsetimeb       =   7.00385e-10
npresponsetimea     =   1.65060e-10
npresponsetimea     =   3.04024e-10
npresponsetimea     =   5.61439e-10
npresponsetimea     =   6.13644e-10
npresponsetimeb     =   2.50599e-10
npresponsetimeb     =   3.33824e-10
npresponsetimeb     =   8.40461e-10
npresponsetimeb     =   8.78325e-10
responsetimeupa     =   2.47723e-10
responsetimeupa     =   3.75071e-10
responsetimeupa     =   6.44884e-10
responsetimeupa     =   7.04767e-10
responsetimeupb     =   3.42758e-10
responsetimeupb     =   4.44596e-10
responsetimeupb     =   7.28037e-10
responsetimeupb     =   7.86808e-10

CPU time since last call: 39.775 seconds.

Total CPU time: 39.775 seconds.

Total DRAM available = 128860.136719 MB.
DRAM currently available = 110432.476562 MB.
Total ngspice program size = 101.314453 MB.
Resident set size = 86.867188 MB.
Shared ngspice pages = 2.046875 MB.
Text (code) pages = 1.597656 MB.
Stack = 0 bytes.
Library pages = 84.933594 MB.

