
Circuit: *pulseloop

Doing analysis at TEMP = 27.000000 and TNOM = 27.000000

Note: Starting dynamic gmin stepping
Trying gmin =   1.0000E-03 Note: One successful gmin step
Trying gmin =   1.0000E-04 Note: One successful gmin step
Trying gmin =   1.0000E-05 Warning: Further gmin increment
Trying gmin =   5.6234E-05 Note: One successful gmin step
Trying gmin =   2.3714E-05 Note: One successful gmin step
Trying gmin =   6.4938E-06 Note: One successful gmin step
Trying gmin =   9.3057E-07 Note: One successful gmin step
Trying gmin =   9.3057E-08 Note: One successful gmin step
Trying gmin =   9.3057E-09 Note: One successful gmin step
Trying gmin =   9.3057E-10 Note: One successful gmin step
Trying gmin =   9.3057E-11 Note: One successful gmin step
Trying gmin =   9.3057E-12 Note: One successful gmin step
Trying gmin =   2.9427E-12 Note: One successful gmin step
Trying gmin =   1.0000E-12 Note: One successful gmin step
Note: Dynamic gmin stepping completed

Initial Transient Solution
--------------------------

Node                                   Voltage
----                                   -------
pos_supply                                 1.8
xpg1.reset_loop                            1.8
xpg1.critical_node                     1.74017
neg_supply                                   0
snoise                                       0
outb                               9.68599e-07
xpg1.invo                          2.45993e-06
xpg1.xe                                    1.8
outa                               9.68599e-07
xpg2.reset_loop                            1.8
xpg2.critical_node                     1.74017
xpg2.invo                          2.45993e-06
xpg2.xe                                    1.8
xpg3.reset_loop                            1.8
xpg3.critical_node                     1.74017
npoutb                             9.68599e-07
xpg3.invo                          2.45993e-06
xpg3.xe                                    1.8
npouta                             9.68599e-07
xpg4.reset_loop                            1.8
xpg4.critical_node                         1.8
xpg4.invo                          9.68599e-07
xpg4.xe                                    1.8
xpg5.reset_loop                            1.8
xpg5.critical_node                     1.74017
upb                                9.68599e-07
xpg5.invo                          2.45993e-06
xpg5.xe                                    1.8
upa                                9.68599e-07
xpg6.reset_loop                            1.8
xpg6.critical_node                     1.74017
xpg6.invo                          2.45993e-06
xpg6.xe                                    1.8
v2#branch                                    0
v4#branch                          9.76073e-09
v3#branch                         -9.76073e-09



No. of Data Rows : 2747
responsetimea1      =  8.565363e-11
responsetimea2      =  1.431605e-10
responsetimea3      =  6.954022e-10
responsetimea4      =  7.586604e-10
responsetimeb1      =  1.666250e-10
responsetimeb2      =  2.256154e-10
responsetimeb3      =  7.796705e-10
responsetimeb4      =  8.381035e-10
npresponsetimea1    =  8.684608e-11
npresponsetimea2    =  1.443323e-10
npresponsetimea3    =  6.964084e-10
npresponsetimea4    =  7.595678e-10
npresponsetimeb1    =  1.318213e-09
npresponsetimeb2    =  1.355044e-09
npresponsetimeb3    =  1.689534e-09
npresponsetimeb4    =  1.714509e-09
responsetimeupa1    =  1.695529e-10
responsetimeupa2    =  2.291845e-10
responsetimeupa3    =  7.816714e-10
responsetimeupa4    =  8.406628e-10
responsetimeupb1    =  2.508246e-10
responsetimeupb2    =  3.093961e-10
responsetimeupb3    =  8.646538e-10
responsetimeupb4    =  9.238454e-10
tdiff = 6.730068e-10
iavg                =  -2.195388e-04 from=  8.565363e-11 to=  7.600000e-10
iavg = -2.19539e-04
tdiffb = 6.714785e-10
iavgb               =  -2.081037e-04 from=  1.666250e-10 to=  8.400000e-10
iavgb = -2.08104e-04
Note: No ".plot", ".print", or ".fourier" lines; no simulations run
