
Circuit: *pulseloop

Doing analysis at TEMP = 27.000000 and TNOM = 27.000000

Note: Starting dynamic gmin stepping
Trying gmin =   1.0000E-03 Note: One successful gmin step
Trying gmin =   1.0000E-04 Note: One successful gmin step
Trying gmin =   1.0000E-05 Warning: Further gmin increment
Trying gmin =   5.6234E-05 Note: One successful gmin step
Trying gmin =   2.3714E-05 Note: One successful gmin step
Trying gmin =   6.4938E-06 Note: One successful gmin step
Trying gmin =   9.3057E-07 Note: One successful gmin step
Trying gmin =   9.3057E-08 Note: One successful gmin step
Trying gmin =   9.3057E-09 Note: One successful gmin step
Trying gmin =   9.3057E-10 Note: One successful gmin step
Trying gmin =   9.3057E-11 Note: One successful gmin step
Trying gmin =   9.3057E-12 Note: One successful gmin step
Trying gmin =   2.9427E-12 Note: One successful gmin step
Trying gmin =   1.0000E-12 Note: One successful gmin step
Note: Dynamic gmin stepping completed

Initial Transient Solution
--------------------------

Node                                   Voltage
----                                   -------
pos_supply                                 1.8
xpg1.reset_loop                            1.8
xpg1.critical_node                     1.74017
neg_supply                                   0
snoise                                       0
outb                               9.68599e-07
xpg1.invo                          2.45993e-06
xpg1.xe                                    1.8
outa                               9.68599e-07
xpg2.reset_loop                            1.8
xpg2.critical_node                     1.74017
xpg2.invo                          2.45993e-06
xpg2.xe                                    1.8
xpg3.reset_loop                            1.8
xpg3.critical_node                     1.74017
npoutb                             9.68599e-07
xpg3.invo                          2.45993e-06
xpg3.xe                                    1.8
npouta                             9.68599e-07
xpg4.reset_loop                            1.8
xpg4.critical_node                         1.8
xpg4.invo                          9.68599e-07
xpg4.xe                                    1.8
xpg5.reset_loop                            1.8
xpg5.critical_node                     1.74017
upb                                9.68599e-07
xpg5.invo                          2.45993e-06
xpg5.xe                                    1.8
upa                                9.68599e-07
xpg6.reset_loop                            1.8
xpg6.critical_node                     1.74017
xpg6.invo                          2.45993e-06
xpg6.xe                                    1.8
v2#branch                                    0
v4#branch                          9.76073e-09
v3#branch                         -9.76073e-09



No. of Data Rows : 4635
responsetimea1      =  2.105823e-10
responsetimea2      =  2.689227e-10
responsetimea3      =  5.192032e-10
responsetimea4      =  5.864473e-10
responsetimeb1      =  2.918951e-10
responsetimeb2      =  3.495779e-10
responsetimeb3      =  6.042865e-10
responsetimeb4      =  6.624684e-10
npresponsetimea1    =  2.116504e-10
npresponsetimea2    =  2.697270e-10
npresponsetimea3    =  5.183143e-10
npresponsetimea4    =  5.856941e-10
npresponsetimeb1    =  6.080363e-10
npresponsetimeb2    =  6.353595e-10
npresponsetimeb3    =  5.101986e-09
npresponsetimeb4    =  5.146450e-09
responsetimeupa1    =  2.950452e-10
responsetimeupa2    =  3.529179e-10
responsetimeupa3    =  6.030534e-10
responsetimeupa4    =  6.625782e-10
responsetimeupb1    =  3.762361e-10
responsetimeupb2    =  4.343076e-10
responsetimeupb3    =  6.865020e-10
responsetimeupb4    =  7.456616e-10
tdiff = 3.758650e-10
iavg                =  -3.721051e-04 from=  2.105823e-10 to=  5.884685e-10
iavg = -3.72105e-04
tdiffb = 3.705733e-10
iavgb               =  -3.620873e-04 from=  2.918951e-10 to=  6.628119e-10
iavgb = -3.62087e-04
Note: No ".plot", ".print", or ".fourier" lines; no simulations run
