
Circuit: *pulseloop

Doing analysis at TEMP = 27.000000 and TNOM = 27.000000

Note: Starting dynamic gmin stepping
Trying gmin =   1.0000E-03 Note: One successful gmin step
Trying gmin =   1.0000E-04 Note: One successful gmin step
Trying gmin =   1.0000E-05 Warning: Further gmin increment
Trying gmin =   5.6234E-05 Note: One successful gmin step
Trying gmin =   2.3714E-05 Note: One successful gmin step
Trying gmin =   6.4938E-06 Note: One successful gmin step
Trying gmin =   9.3057E-07 Note: One successful gmin step
Trying gmin =   9.3057E-08 Note: One successful gmin step
Trying gmin =   9.3057E-09 Note: One successful gmin step
Trying gmin =   9.3057E-10 Note: One successful gmin step
Trying gmin =   9.3057E-11 Note: One successful gmin step
Trying gmin =   9.3057E-12 Note: One successful gmin step
Trying gmin =   2.9427E-12 Note: One successful gmin step
Trying gmin =   1.0000E-12 Note: One successful gmin step
Note: Dynamic gmin stepping completed

Initial Transient Solution
--------------------------

Node                                   Voltage
----                                   -------
pos_supply                                 1.8
xpg1.reset_loop                            1.8
xpg1.critical_node                     1.74017
neg_supply                                   0
snoise                                       0
outb                               9.68599e-07
xpg1.invo                          2.45993e-06
xpg1.xe                                    1.8
outa                               9.68599e-07
xpg2.reset_loop                            1.8
xpg2.critical_node                     1.74017
xpg2.invo                          2.45993e-06
xpg2.xe                                    1.8
xpg3.reset_loop                            1.8
xpg3.critical_node                     1.74017
npoutb                             9.68599e-07
xpg3.invo                          2.45993e-06
xpg3.xe                                    1.8
npouta                             9.68599e-07
xpg4.reset_loop                            1.8
xpg4.critical_node                         1.8
xpg4.invo                          9.68599e-07
xpg4.xe                                    1.8
xpg5.reset_loop                            1.8
xpg5.critical_node                     1.74017
upb                                9.68599e-07
xpg5.invo                          2.45993e-06
xpg5.xe                                    1.8
upa                                9.68599e-07
xpg6.reset_loop                            1.8
xpg6.critical_node                     1.74017
xpg6.invo                          2.45993e-06
xpg6.xe                                    1.8
v2#branch                                    0
v4#branch                          9.76073e-09
v3#branch                         -9.76073e-09

doAnalyses: TRAN:  Timestep too small; time = 1.86e-09, timestep = 1.25e-23: trouble with node "npoutb"


tran simulation(s) aborted
responsetimea1      =  1.366210e-10
responsetimea2      =  1.914062e-10
responsetimea3      =  4.788412e-10
responsetimea4      =  5.380765e-10
responsetimeb1      =  2.178063e-10
responsetimeb2      =  2.749763e-10
responsetimeb3      =  5.621927e-10
responsetimeb4      =  6.187160e-10
npresponsetimea1    =  1.376511e-10
npresponsetimea2    =  1.924847e-10
npresponsetimea3    =  4.797103e-10
npresponsetimea4    =  5.388960e-10
npresponsetimeb1    =  5.824498e-10
npresponsetimeb2    =  6.350292e-10
npresponsetimeb3    =  1.080741e-09
npresponsetimeb4    =  1.088886e-09
responsetimeupa1    =  2.203828e-10
responsetimeupa2    =  2.791066e-10
responsetimeupa3    =  5.643015e-10
responsetimeupa4    =  6.239575e-10
responsetimeupb1    =  3.009292e-10
responsetimeupb2    =  3.600595e-10
responsetimeupb3    =  6.476515e-10
responsetimeupb4    =  7.059898e-10
tdiff = 4.014555e-10
iavg                =  -3.243474e-04 from=  1.366210e-10 to=  5.400000e-10
iavg = -3.24347e-04
tdiffb = 4.009097e-10
iavgb               =  -3.407900e-04 from=  2.178063e-10 to=  6.198750e-10
iavgb = -3.40790e-04
Note: No ".plot", ".print", or ".fourier" lines; no simulations run
