
Circuit: *pulseloop

Doing analysis at TEMP = 27.000000 and TNOM = 27.000000

Note: Starting dynamic gmin stepping
Trying gmin =   1.0000E-03 Note: One successful gmin step
Trying gmin =   1.0000E-04 Note: One successful gmin step
Trying gmin =   1.0000E-05 Warning: Further gmin increment
Trying gmin =   5.6234E-05 Note: One successful gmin step
Trying gmin =   2.3714E-05 Note: One successful gmin step
Trying gmin =   6.4938E-06 Note: One successful gmin step
Trying gmin =   9.3057E-07 Note: One successful gmin step
Trying gmin =   9.3057E-08 Note: One successful gmin step
Trying gmin =   9.3057E-09 Note: One successful gmin step
Trying gmin =   9.3057E-10 Note: One successful gmin step
Trying gmin =   9.3057E-11 Note: One successful gmin step
Trying gmin =   9.3057E-12 Note: One successful gmin step
Trying gmin =   2.9427E-12 Note: One successful gmin step
Trying gmin =   1.0000E-12 Note: One successful gmin step
Note: Dynamic gmin stepping completed

Initial Transient Solution
--------------------------

Node                                   Voltage
----                                   -------
pos_supply                                 1.8
xpg1.reset_loop                            1.8
xpg1.critical_node                     1.74017
neg_supply                                   0
snoise                                       0
outb                               9.68599e-07
xpg1.invo                          2.45993e-06
xpg1.xe                                    1.8
outa                               9.68599e-07
xpg2.reset_loop                            1.8
xpg2.critical_node                     1.74017
xpg2.invo                          2.45993e-06
xpg2.xe                                    1.8
xpg3.reset_loop                            1.8
xpg3.critical_node                     1.74017
npoutb                             9.68599e-07
xpg3.invo                          2.45993e-06
xpg3.xe                                    1.8
npouta                             9.68599e-07
xpg4.reset_loop                            1.8
xpg4.critical_node                         1.8
xpg4.invo                          9.68599e-07
xpg4.xe                                    1.8
xpg5.reset_loop                            1.8
xpg5.critical_node                     1.74017
upb                                9.68599e-07
xpg5.invo                          2.45993e-06
xpg5.xe                                    1.8
upa                                9.68599e-07
xpg6.reset_loop                            1.8
xpg6.critical_node                     1.74017
xpg6.invo                          2.45993e-06
xpg6.xe                                    1.8
v2#branch                                    0
v4#branch                          9.76073e-09
v3#branch                         -9.76073e-09

doAnalyses: TRAN:  Timestep too small; time = 4.6e-10, timestep = 1.25e-23: trouble with node "npoutb"


tran simulation(s) aborted
responsetimea1      =  9.493914e-11
responsetimea2      =  1.611357e-10
responsetimea3      =  2.920748e-10
responsetimea4      =  3.518917e-10
responsetimeb1      =  1.764381e-10
responsetimeb2      =  2.332929e-10
responsetimeb3      =  3.758461e-10
responsetimeb4      =  4.337847e-10
npresponsetimea1    =  9.606307e-11
npresponsetimea2    =  1.621656e-10
npresponsetimea3    =  2.903969e-10
npresponsetimea4    =  3.503834e-10

Error: measure  npresponsetimeb1  (WHEN) : out of interval
 meas tran npresponsetimeb1 when v(npoutb)=1.2 cross=1 failed!


Error: measure  npresponsetimeb2  (WHEN) : out of interval
 meas tran npresponsetimeb2 when v(npoutb)=1.2 cross=2 failed!


Error: measure  npresponsetimeb3  (WHEN) : out of interval
 meas tran npresponsetimeb3 when v(npoutb)=1.2 cross=3 failed!


Error: measure  npresponsetimeb4  (WHEN) : out of interval
 meas tran npresponsetimeb4 when v(npoutb)=1.2 cross=4 failed!

responsetimeupa1    =  1.792702e-10
responsetimeupa2    =  2.381828e-10
responsetimeupa3    =  3.783861e-10
responsetimeupa4    =  4.361439e-10
responsetimeupb1    =  2.598988e-10
responsetimeupb2    =  3.174772e-10

Error: measure  responsetimeupb3  (WHEN) : out of interval
 meas tran responsetimeupb3 when v(upb)=1.2 cross=3 failed!


Error: measure  responsetimeupb4  (WHEN) : out of interval
 meas tran responsetimeupb4 when v(upb)=1.2 cross=4 failed!

tdiff = 2.569526e-10
iavg                =  -5.380812e-04 from=  9.493914e-11 to=  3.598063e-10
iavg = -5.38081e-04
tdiffb = 2.573466e-10
iavgb               =  -4.977746e-04 from=  1.764381e-10 to=  4.400000e-10
iavgb = -4.97775e-04
Note: No ".plot", ".print", or ".fourier" lines; no simulations run
