
Circuit: *pulseloop

Doing analysis at TEMP = 27.000000 and TNOM = 27.000000

Note: Starting dynamic gmin stepping
Trying gmin =   1.0000E-03 Note: One successful gmin step
Trying gmin =   1.0000E-04 Note: One successful gmin step
Trying gmin =   1.0000E-05 Warning: Further gmin increment
Trying gmin =   5.6234E-05 Note: One successful gmin step
Trying gmin =   2.3714E-05 Note: One successful gmin step
Trying gmin =   6.4938E-06 Note: One successful gmin step
Trying gmin =   9.3057E-07 Note: One successful gmin step
Trying gmin =   9.3057E-08 Note: One successful gmin step
Trying gmin =   9.3057E-09 Note: One successful gmin step
Trying gmin =   9.3057E-10 Note: One successful gmin step
Trying gmin =   9.3057E-11 Note: One successful gmin step
Trying gmin =   9.3057E-12 Note: One successful gmin step
Trying gmin =   2.9427E-12 Note: One successful gmin step
Trying gmin =   1.0000E-12 Note: One successful gmin step
Note: Dynamic gmin stepping completed

Initial Transient Solution
--------------------------

Node                                   Voltage
----                                   -------
pos_supply                                 1.8
xpg1.reset_loop                            1.8
xpg1.critical_node                     1.74017
neg_supply                                   0
snoise                                       0
outb                               9.68599e-07
xpg1.invo                          2.45993e-06
xpg1.xe                                    1.8
outa                               9.68599e-07
xpg2.reset_loop                            1.8
xpg2.critical_node                     1.74017
xpg2.invo                          2.45993e-06
xpg2.xe                                    1.8
xpg3.reset_loop                            1.8
xpg3.critical_node                     1.74017
npoutb                             9.68599e-07
xpg3.invo                          2.45993e-06
xpg3.xe                                    1.8
npouta                             9.68599e-07
xpg4.reset_loop                            1.8
xpg4.critical_node                         1.8
xpg4.invo                          9.68599e-07
xpg4.xe                                    1.8
xpg5.reset_loop                            1.8
xpg5.critical_node                     1.74017
upb                                9.68599e-07
xpg5.invo                          2.45993e-06
xpg5.xe                                    1.8
upa                                9.68599e-07
xpg6.reset_loop                            1.8
xpg6.critical_node                     1.74017
xpg6.invo                          2.45993e-06
xpg6.xe                                    1.8
v2#branch                                    0
v4#branch                          9.76073e-09
v3#branch                         -9.76073e-09



No. of Data Rows : 4699
responsetimea1      =  1.662660e-10
responsetimea2      =  2.144530e-10
responsetimea3      =  4.778544e-10
responsetimea4      =  5.290888e-10
responsetimeb1      =  2.484342e-10
responsetimeb2      =  3.084217e-10
responsetimeb3      =  5.606419e-10
responsetimeb4      =  6.185706e-10
npresponsetimea1    =  1.674269e-10
npresponsetimea2    =  2.154537e-10
npresponsetimea3    =  4.708158e-10
npresponsetimea4    =  5.220102e-10
npresponsetimeb1    =  1.301009e-09
npresponsetimeb2    =  1.342682e-09
npresponsetimeb3    =  2.081719e-09
npresponsetimeb4    =  2.118264e-09
responsetimeupa1    =  2.496922e-10
responsetimeupa2    =  3.096640e-10
responsetimeupa3    =  5.566223e-10
responsetimeupa4    =  6.149265e-10
responsetimeupb1    =  3.306225e-10
responsetimeupb2    =  3.898814e-10
responsetimeupb3    =  6.397478e-10
responsetimeupb4    =  6.987175e-10
tdiff = 3.628228e-10
iavg                =  -3.432233e-04 from=  1.662660e-10 to=  5.344946e-10
iavg = -3.43223e-04
tdiffb = 3.701364e-10
iavgb               =  -3.112709e-04 from=  2.484342e-10 to=  6.200000e-10
iavgb = -3.11271e-04
Note: No ".plot", ".print", or ".fourier" lines; no simulations run
