
Circuit: *pulseloop

Doing analysis at TEMP = 27.000000 and TNOM = 27.000000

Warning: v3: no DC value, transient time 0 value used

Initial Transient Solution
--------------------------

Node                                   Voltage
----                                   -------
pos_supply                                   0
xpg1.reset_loop                   -8.12365e-17
xpg1.critical_node                -8.80841e-17
neg_supply                                   0
snoise                                       0
outb                              -8.03416e-17
xpg1.invo                         -9.97178e-17
xpg1.xe                           -8.12365e-17
outa                              -8.20934e-17
xpg2.reset_loop                   -7.77454e-17
xpg2.critical_node                -8.26566e-17
xpg2.invo                         -9.75528e-17
xpg2.xe                           -7.77454e-17
xpg3.reset_loop                    4.42443e-15
xpg3.critical_node                 1.71154e-15
npoutb                             1.04917e-18
xpg3.invo                          4.44647e-15
xpg3.xe                            4.42443e-15
npouta                             2.18895e-15
xpg4.reset_loop                      1.586e-19
xpg4.critical_node                 2.86647e-18
xpg4.invo                         -4.27022e-20
xpg4.xe                              1.586e-19
xpg5.reset_loop                    5.35403e-14
xpg5.critical_node                 3.93795e-15
upb                                 9.4555e-14
xpg5.invo                         -2.60077e-14
xpg5.xe                            5.35403e-14
upa                                9.64704e-14
xpg6.reset_loop                    5.25477e-14
xpg6.critical_node                 4.57034e-15
xpg6.invo                         -2.53868e-14
xpg6.xe                            5.25445e-14
v2#branch                                    0
v4#branch                          7.88613e-25
v3#branch                         -7.88613e-25

doAnalyses: TRAN:  Timestep too small; time = 3.58e-08, timestep = 1.25e-23: trouble with node "xpg3.critical_node"


tran simulation(s) aborted
ERROR: (internal)  This operation is not defined for display type printf.
Can't open viewport for graphics.
responsetimea1      =  9.859283e-09
responsetimea2      =  9.878484e-09
responsetimea3      =  1.083064e-08
responsetimea4      =  1.087565e-08
responsetimeb1      =  9.318585e-09
responsetimeb2      =  9.348222e-09
responsetimeb3      =  1.019821e-08
responsetimeb4      =  1.020051e-08
npresponsetimea1    =  1.083622e-08
npresponsetimea2    =  1.087556e-08
npresponsetimea3    =  1.126018e-08
npresponsetimea4    =  1.131756e-08
npresponsetimeb1    =  1.664446e-08
npresponsetimeb2    =  1.668531e-08
npresponsetimeb3    =  2.372867e-08
npresponsetimeb4    =  2.375463e-08
responsetimeupa1    =  1.012727e-08
responsetimeupa2    =  1.016518e-08
responsetimeupa3    =  1.103155e-08
responsetimeupa4    =  1.108526e-08
responsetimeupb1    =  9.680290e-09
responsetimeupb2    =  9.709245e-09
responsetimeupb3    =  1.041747e-08
responsetimeupb4    =  1.046462e-08
tdiff = 1.016367e-09
iavg                =  -6.220966e-05 from=  9.859283e-09 to=  1.088000e-08
iavg = -6.22097e-05
tdiffb = 8.819250e-10
iavgb               =  -6.970523e-05 from=  9.318585e-09 to=  1.020100e-08
iavgb = -6.97052e-05
Note: No ".plot", ".print", or ".fourier" lines; no simulations run
