
Circuit: *pulseloop

Doing analysis at TEMP = 27.000000 and TNOM = 27.000000

Note: Starting dynamic gmin stepping
Trying gmin =   1.0000E-03 Note: One successful gmin step
Trying gmin =   1.0000E-04 Note: One successful gmin step
Trying gmin =   1.0000E-05 Warning: Further gmin increment
Trying gmin =   5.6234E-05 Note: One successful gmin step
Trying gmin =   2.3714E-05 Note: One successful gmin step
Trying gmin =   6.4938E-06 Note: One successful gmin step
Trying gmin =   9.3057E-07 Note: One successful gmin step
Trying gmin =   9.3057E-08 Note: One successful gmin step
Trying gmin =   9.3057E-09 Note: One successful gmin step
Trying gmin =   9.3057E-10 Note: One successful gmin step
Trying gmin =   9.3057E-11 Note: One successful gmin step
Trying gmin =   9.3057E-12 Note: One successful gmin step
Trying gmin =   2.9427E-12 Note: One successful gmin step
Trying gmin =   1.0000E-12 Note: One successful gmin step
Note: Dynamic gmin stepping completed

Initial Transient Solution
--------------------------

Node                                   Voltage
----                                   -------
pos_supply                                 1.8
xpg1.reset_loop                            1.8
xpg1.critical_node                     1.74017
neg_supply                                   0
snoise                                       0
outb                               9.68599e-07
xpg1.invo                          2.45993e-06
xpg1.xe                                    1.8
outa                               9.68599e-07
xpg2.reset_loop                            1.8
xpg2.critical_node                     1.74017
xpg2.invo                          2.45993e-06
xpg2.xe                                    1.8
xpg3.reset_loop                            1.8
xpg3.critical_node                     1.74017
npoutb                             9.68599e-07
xpg3.invo                          2.45993e-06
xpg3.xe                                    1.8
npouta                             9.68599e-07
xpg4.reset_loop                            1.8
xpg4.critical_node                         1.8
xpg4.invo                          9.68599e-07
xpg4.xe                                    1.8
xpg5.reset_loop                            1.8
xpg5.critical_node                     1.74017
upb                                9.68599e-07
xpg5.invo                          2.45993e-06
xpg5.xe                                    1.8
upa                                9.68599e-07
xpg6.reset_loop                            1.8
xpg6.critical_node                     1.74017
xpg6.invo                          2.45993e-06
xpg6.xe                                    1.8
v2#branch                                    0
v4#branch                          9.76073e-09
v3#branch                         -9.76073e-09



No. of Data Rows : 2355
responsetimea1      =  1.570349e-10
responsetimea2      =  2.507719e-10
responsetimea3      =  2.887881e-10
responsetimea4      =  3.294460e-10
responsetimeb1      =  2.413883e-10
responsetimeb2      =  3.111234e-10
responsetimeb3      =  4.687941e-10
responsetimeb4      =  5.284590e-10
npresponsetimea1    =  1.577835e-10
npresponsetimea2    =  2.575473e-10
npresponsetimea3    =  2.678744e-10
npresponsetimea4    =  3.321055e-10
npresponsetimeb1    =  2.567453e-10
npresponsetimeb2    =  3.050834e-10
npresponsetimeb3    =  3.858970e-10
npresponsetimeb4    =  4.169819e-10
responsetimeupa1    =  2.407656e-10
responsetimeupa2    =  3.983734e-10
responsetimeupa3    =  4.993621e-10
responsetimeupa4    =  5.367439e-10
responsetimeupb1    =  3.227717e-10
responsetimeupb2    =  4.672708e-10
responsetimeupb3    =  5.798391e-10
responsetimeupb4    =  6.386139e-10
tdiff = 1.724111e-10
iavg                =  -9.095078e-04 from=  1.570349e-10 to=  3.365377e-10
iavg = -9.09508e-04
tdiffb = 2.870707e-10
iavgb               =  -7.921913e-04 from=  2.413883e-10 to=  5.301160e-10
iavgb = -7.92191e-04
Note: No ".plot", ".print", or ".fourier" lines; no simulations run
