
Circuit: *pulseloop

Doing analysis at TEMP = 27.000000 and TNOM = 27.000000

Note: Starting dynamic gmin stepping
Trying gmin =   1.0000E-03 Note: One successful gmin step
Trying gmin =   1.0000E-04 Note: One successful gmin step
Trying gmin =   1.0000E-05 Warning: Further gmin increment
Trying gmin =   5.6234E-05 Note: One successful gmin step
Trying gmin =   2.3714E-05 Note: One successful gmin step
Trying gmin =   6.4938E-06 Note: One successful gmin step
Trying gmin =   9.3057E-07 Note: One successful gmin step
Trying gmin =   9.3057E-08 Note: One successful gmin step
Trying gmin =   9.3057E-09 Note: One successful gmin step
Trying gmin =   9.3057E-10 Note: One successful gmin step
Trying gmin =   9.3057E-11 Note: One successful gmin step
Trying gmin =   9.3057E-12 Note: One successful gmin step
Trying gmin =   2.9427E-12 Note: One successful gmin step
Trying gmin =   1.0000E-12 Note: One successful gmin step
Note: Dynamic gmin stepping completed

Initial Transient Solution
--------------------------

Node                                   Voltage
----                                   -------
pos_supply                                 1.8
xpg1.reset_loop                            1.8
xpg1.critical_node                     1.74017
neg_supply                                   0
snoise                                       0
outb                               9.68599e-07
xpg1.invo                          2.45993e-06
xpg1.xe                                    1.8
outa                               9.68599e-07
xpg2.reset_loop                            1.8
xpg2.critical_node                     1.74017
xpg2.invo                          2.45993e-06
xpg2.xe                                    1.8
xpg3.reset_loop                            1.8
xpg3.critical_node                     1.74017
npoutb                             9.68599e-07
xpg3.invo                          2.45993e-06
xpg3.xe                                    1.8
npouta                             9.68599e-07
xpg4.reset_loop                            1.8
xpg4.critical_node                         1.8
xpg4.invo                          9.68599e-07
xpg4.xe                                    1.8
xpg5.reset_loop                            1.8
xpg5.critical_node                     1.74017
upb                                9.68599e-07
xpg5.invo                          2.45993e-06
xpg5.xe                                    1.8
upa                                9.68599e-07
xpg6.reset_loop                            1.8
xpg6.critical_node                     1.74017
xpg6.invo                          2.45993e-06
xpg6.xe                                    1.8
v2#branch                                    0
v4#branch                          9.76073e-09
v3#branch                         -9.76073e-09



No. of Data Rows : 2449
responsetimea1      =  9.705354e-11
responsetimea2      =  1.553074e-10
responsetimea3      =  3.999622e-10
responsetimea4      =  4.974953e-10
responsetimeb1      =  1.775332e-10
responsetimeb2      =  2.347474e-10
responsetimeb3      =  4.902246e-10
responsetimeb4      =  5.639743e-10
npresponsetimea1    =  9.805800e-11
npresponsetimea2    =  1.564053e-10
npresponsetimea3    =  4.010516e-10
npresponsetimea4    =  4.997042e-10
npresponsetimeb1    =  7.283663e-10
npresponsetimeb2    =  7.609573e-10
npresponsetimeb3    =  1.844360e-09
npresponsetimeb4    =  1.915327e-09
responsetimeupa1    =  1.806105e-10
responsetimeupa2    =  2.396373e-10
responsetimeupa3    =  4.867391e-10
responsetimeupa4    =  5.705825e-10
responsetimeupb1    =  2.612253e-10
responsetimeupb2    =  3.201149e-10
responsetimeupb3    =  5.700631e-10
responsetimeupb4    =  6.406114e-10
tdiff = 4.004418e-10
iavg                =  -4.003672e-04 from=  9.705354e-11 to=  5.000000e-10
iavg = -4.00367e-04
tdiffb = 3.864411e-10
iavgb               =  -8.558978e-05 from=  1.775332e-10 to=  5.655886e-10
iavgb = -8.55898e-05
Note: No ".plot", ".print", or ".fourier" lines; no simulations run
