
Circuit: *pulseloop

Doing analysis at TEMP = 27.000000 and TNOM = 27.000000

Note: Starting dynamic gmin stepping
Trying gmin =   1.0000E-03 Note: One successful gmin step
Trying gmin =   1.0000E-04 Note: One successful gmin step
Trying gmin =   1.0000E-05 Warning: Further gmin increment
Trying gmin =   5.6234E-05 Note: One successful gmin step
Trying gmin =   2.3714E-05 Note: One successful gmin step
Trying gmin =   6.4938E-06 Note: One successful gmin step
Trying gmin =   9.3057E-07 Note: One successful gmin step
Trying gmin =   9.3057E-08 Note: One successful gmin step
Trying gmin =   9.3057E-09 Note: One successful gmin step
Trying gmin =   9.3057E-10 Note: One successful gmin step
Trying gmin =   9.3057E-11 Note: One successful gmin step
Trying gmin =   9.3057E-12 Note: One successful gmin step
Trying gmin =   2.9427E-12 Note: One successful gmin step
Trying gmin =   1.0000E-12 Note: One successful gmin step
Note: Dynamic gmin stepping completed

Initial Transient Solution
--------------------------

Node                                   Voltage
----                                   -------
pos_supply                                 1.8
xpg1.reset_loop                            1.8
xpg1.critical_node                     1.74017
neg_supply                                   0
snoise                                       0
outb                               9.68599e-07
xpg1.invo                          2.45993e-06
xpg1.xe                                    1.8
outa                               9.68599e-07
xpg2.reset_loop                            1.8
xpg2.critical_node                     1.74017
xpg2.invo                          2.45993e-06
xpg2.xe                                    1.8
xpg3.reset_loop                            1.8
xpg3.critical_node                     1.74017
npoutb                             9.68599e-07
xpg3.invo                          2.45993e-06
xpg3.xe                                    1.8
npouta                             9.68599e-07
xpg4.reset_loop                            1.8
xpg4.critical_node                         1.8
xpg4.invo                          9.68599e-07
xpg4.xe                                    1.8
xpg5.reset_loop                            1.8
xpg5.critical_node                     1.74017
upb                                9.68599e-07
xpg5.invo                          2.45993e-06
xpg5.xe                                    1.8
upa                                9.68599e-07
xpg6.reset_loop                            1.8
xpg6.critical_node                     1.74017
xpg6.invo                          2.45993e-06
xpg6.xe                                    1.8
v2#branch                                    0
v4#branch                          9.76073e-09
v3#branch                         -9.76073e-09



No. of Data Rows : 2786
responsetimea1      =  1.295427e-10
responsetimea2      =  2.062732e-10
responsetimea3      =  2.288223e-10
responsetimea4      =  3.278480e-10
responsetimeb1      =  2.210012e-10
responsetimeb2      =  3.967149e-10
responsetimeb3      =  7.018525e-10
responsetimeb4      =  7.557973e-10
npresponsetimea1    =  1.313030e-10
npresponsetimea2    =  2.112084e-10
npresponsetimea3    =  2.239328e-10
npresponsetimea4    =  3.340941e-10
npresponsetimeb1    =  2.246600e-10
npresponsetimeb2    =  2.702636e-10
npresponsetimeb3    =  3.112588e-10
npresponsetimeb4    =  3.714131e-10
responsetimeupa1    =  2.152678e-10
responsetimeupa2    =  4.007154e-10
responsetimeupa3    =  7.012248e-10
responsetimeupa4    =  7.694491e-10
responsetimeupb1    =  3.087758e-10
responsetimeupb2    =  4.698305e-10
responsetimeupb3    =  7.859954e-10
responsetimeupb4    =  8.379600e-10
tdiff = 1.983053e-10
iavg                =  -8.885973e-04 from=  1.295427e-10 to=  3.283974e-10
iavg = -8.88597e-04
tdiffb = 5.347961e-10
iavgb               =  -7.274513e-04 from=  2.210012e-10 to=  7.594831e-10
iavgb = -7.27451e-04
Note: No ".plot", ".print", or ".fourier" lines; no simulations run
