
Circuit: *pulseloop

Doing analysis at TEMP = 27.000000 and TNOM = 27.000000

Note: Starting dynamic gmin stepping
Trying gmin =   1.0000E-03 Note: One successful gmin step
Trying gmin =   1.0000E-04 Note: One successful gmin step
Trying gmin =   1.0000E-05 Warning: Further gmin increment
Trying gmin =   5.6234E-05 Note: One successful gmin step
Trying gmin =   2.3714E-05 Note: One successful gmin step
Trying gmin =   6.4938E-06 Note: One successful gmin step
Trying gmin =   9.3057E-07 Note: One successful gmin step
Trying gmin =   9.3057E-08 Note: One successful gmin step
Trying gmin =   9.3057E-09 Note: One successful gmin step
Trying gmin =   9.3057E-10 Note: One successful gmin step
Trying gmin =   9.3057E-11 Note: One successful gmin step
Trying gmin =   9.3057E-12 Note: One successful gmin step
Trying gmin =   2.9427E-12 Note: One successful gmin step
Trying gmin =   1.0000E-12 Note: One successful gmin step
Note: Dynamic gmin stepping completed

Initial Transient Solution
--------------------------

Node                                   Voltage
----                                   -------
pos_supply                                 1.8
xpg1.reset_loop                            1.8
xpg1.critical_node                     1.74017
neg_supply                                   0
snoise                                       0
outb                               9.68599e-07
xpg1.invo                          2.45993e-06
xpg1.xe                                    1.8
outa                               9.68599e-07
xpg2.reset_loop                            1.8
xpg2.critical_node                     1.74017
xpg2.invo                          2.45993e-06
xpg2.xe                                    1.8
xpg3.reset_loop                            1.8
xpg3.critical_node                     1.74017
npoutb                             9.68599e-07
xpg3.invo                          2.45993e-06
xpg3.xe                                    1.8
npouta                             9.68599e-07
xpg4.reset_loop                            1.8
xpg4.critical_node                         1.8
xpg4.invo                          9.68599e-07
xpg4.xe                                    1.8
xpg5.reset_loop                            1.8
xpg5.critical_node                     1.74017
upb                                9.68599e-07
xpg5.invo                          2.45993e-06
xpg5.xe                                    1.8
upa                                9.68599e-07
xpg6.reset_loop                            1.8
xpg6.critical_node                     1.74017
xpg6.invo                          2.45993e-06
xpg6.xe                                    1.8
v2#branch                                    0
v4#branch                          9.76073e-09
v3#branch                         -9.76073e-09



No. of Data Rows : 2096
responsetimea1      =  1.941848e-10
responsetimea2      =  2.534746e-10
responsetimea3      =  3.703572e-10
responsetimea4      =  4.336954e-10
responsetimeb1      =  2.772312e-10
responsetimeb2      =  3.241496e-10
responsetimeb3      =  4.561532e-10
responsetimeb4      =  5.021715e-10
npresponsetimea1    =  1.955250e-10
npresponsetimea2    =  2.540852e-10
npresponsetimea3    =  3.369667e-10
npresponsetimea4    =  4.326851e-10
npresponsetimeb1    =  4.542172e-10
npresponsetimeb2    =  5.063006e-10
npresponsetimeb3    =  7.436375e-10
npresponsetimeb4    =  7.968556e-10
responsetimeupa1    =  2.786445e-10
responsetimeupa2    =  3.370671e-10
responsetimeupa3    =  4.349160e-10
responsetimeupa4    =  5.030565e-10
responsetimeupb1    =  3.603677e-10
responsetimeupb2    =  4.179785e-10
responsetimeupb3    =  5.169783e-10
responsetimeupb4    =  5.756994e-10
tdiff = 2.395106e-10
iavg                =  -2.952576e-04 from=  1.941848e-10 to=  4.400000e-10
iavg = -2.95258e-04
tdiffb = 2.249403e-10
iavgb               =  -3.498045e-04 from=  2.772312e-10 to=  5.030000e-10
iavgb = -3.49804e-04
Note: No ".plot", ".print", or ".fourier" lines; no simulations run
