
Circuit: *pulseloop

Doing analysis at TEMP = 27.000000 and TNOM = 27.000000

Note: Starting dynamic gmin stepping
Trying gmin =   1.0000E-03 Note: One successful gmin step
Trying gmin =   1.0000E-04 Note: One successful gmin step
Trying gmin =   1.0000E-05 Warning: Further gmin increment
Trying gmin =   5.6234E-05 Note: One successful gmin step
Trying gmin =   2.3714E-05 Note: One successful gmin step
Trying gmin =   6.4938E-06 Note: One successful gmin step
Trying gmin =   9.3057E-07 Note: One successful gmin step
Trying gmin =   9.3057E-08 Note: One successful gmin step
Trying gmin =   9.3057E-09 Note: One successful gmin step
Trying gmin =   9.3057E-10 Note: One successful gmin step
Trying gmin =   9.3057E-11 Note: One successful gmin step
Trying gmin =   9.3057E-12 Note: One successful gmin step
Trying gmin =   2.9427E-12 Note: One successful gmin step
Trying gmin =   1.0000E-12 Note: One successful gmin step
Note: Dynamic gmin stepping completed

Initial Transient Solution
--------------------------

Node                                   Voltage
----                                   -------
pos_supply                                 1.8
xpg1.reset_loop                            1.8
xpg1.critical_node                     1.74017
neg_supply                                   0
snoise                                       0
outb                               9.68599e-07
xpg1.invo                          2.45993e-06
xpg1.xe                                    1.8
outa                               9.68599e-07
xpg2.reset_loop                            1.8
xpg2.critical_node                     1.74017
xpg2.invo                          2.45993e-06
xpg2.xe                                    1.8
xpg3.reset_loop                            1.8
xpg3.critical_node                     1.74017
npoutb                             9.68599e-07
xpg3.invo                          2.45993e-06
xpg3.xe                                    1.8
npouta                             9.68599e-07
xpg4.reset_loop                            1.8
xpg4.critical_node                         1.8
xpg4.invo                          9.68599e-07
xpg4.xe                                    1.8
xpg5.reset_loop                            1.8
xpg5.critical_node                     1.74017
upb                                9.68599e-07
xpg5.invo                          2.45993e-06
xpg5.xe                                    1.8
upa                                9.68599e-07
xpg6.reset_loop                            1.8
xpg6.critical_node                     1.74017
xpg6.invo                          2.45993e-06
xpg6.xe                                    1.8
v2#branch                                    0
v4#branch                          9.76073e-09
v3#branch                         -9.76073e-09



No. of Data Rows : 2697
responsetimea1      =  8.191274e-11
responsetimea2      =  1.439537e-10
responsetimea3      =  3.059550e-10
responsetimea4      =  3.917722e-10
responsetimeb1      =  1.633276e-10
responsetimeb2      =  2.172123e-10
responsetimeb3      =  3.899525e-10
responsetimeb4      =  4.606733e-10
npresponsetimea1    =  8.319985e-11
npresponsetimea2    =  1.444324e-10
npresponsetimea3    =  3.592945e-10
npresponsetimea4    =  4.180555e-10
npresponsetimeb1    =  1.859321e-10
npresponsetimeb2    =  2.372549e-10
npresponsetimeb3    =  2.074240e-09
npresponsetimeb4    =  2.130338e-09
responsetimeupa1    =  1.660570e-10
responsetimeupa2    =  2.252002e-10
responsetimeupa3    =  4.394520e-10
responsetimeupa4    =  4.976712e-10
responsetimeupb1    =  2.473757e-10
responsetimeupb2    =  3.060340e-10
responsetimeupb3    =  5.221481e-10
responsetimeupb4    =  5.810407e-10
tdiff = 3.098595e-10
iavg                =  -5.101016e-04 from=  8.191274e-11 to=  3.918144e-10
iavg = -5.10102e-04
tdiffb = 2.973457e-10
iavgb               =  -4.809055e-04 from=  1.633276e-10 to=  4.608351e-10
iavgb = -4.80906e-04
Note: No ".plot", ".print", or ".fourier" lines; no simulations run
