
Circuit: *pulseloop

Doing analysis at TEMP = 27.000000 and TNOM = 27.000000

Note: Starting dynamic gmin stepping
Trying gmin =   1.0000E-03 Note: One successful gmin step
Trying gmin =   1.0000E-04 Note: One successful gmin step
Trying gmin =   1.0000E-05 Warning: Further gmin increment
Trying gmin =   5.6234E-05 Note: One successful gmin step
Trying gmin =   2.3714E-05 Note: One successful gmin step
Trying gmin =   6.4938E-06 Note: One successful gmin step
Trying gmin =   9.3057E-07 Note: One successful gmin step
Trying gmin =   9.3057E-08 Note: One successful gmin step
Trying gmin =   9.3057E-09 Note: One successful gmin step
Trying gmin =   9.3057E-10 Note: One successful gmin step
Trying gmin =   9.3057E-11 Note: One successful gmin step
Trying gmin =   9.3057E-12 Note: One successful gmin step
Trying gmin =   2.9427E-12 Note: One successful gmin step
Trying gmin =   1.0000E-12 Note: One successful gmin step
Note: Dynamic gmin stepping completed

Initial Transient Solution
--------------------------

Node                                   Voltage
----                                   -------
pos_supply                                 1.8
xpg1.reset_loop                            1.8
xpg1.critical_node                     1.74017
neg_supply                                   0
snoise                                       0
outb                               9.68599e-07
xpg1.invo                          2.45993e-06
xpg1.xe                                    1.8
outa                               9.68599e-07
xpg2.reset_loop                            1.8
xpg2.critical_node                     1.74017
xpg2.invo                          2.45993e-06
xpg2.xe                                    1.8
xpg3.reset_loop                            1.8
xpg3.critical_node                     1.74017
npoutb                             9.68599e-07
xpg3.invo                          2.45993e-06
xpg3.xe                                    1.8
npouta                             9.68599e-07
xpg4.reset_loop                            1.8
xpg4.critical_node                         1.8
xpg4.invo                          9.68599e-07
xpg4.xe                                    1.8
xpg5.reset_loop                            1.8
xpg5.critical_node                     1.74017
upb                                9.68599e-07
xpg5.invo                          2.45993e-06
xpg5.xe                                    1.8
upa                                9.68599e-07
xpg6.reset_loop                            1.8
xpg6.critical_node                     1.74017
xpg6.invo                          2.45993e-06
xpg6.xe                                    1.8
v2#branch                                    0
v4#branch                          9.76073e-09
v3#branch                         -9.76073e-09



No. of Data Rows : 4558
responsetimea1      =  3.338648e-10
responsetimea2      =  3.787203e-10
responsetimea3      =  5.389362e-10
responsetimea4      =  6.115893e-10
responsetimeb1      =  4.176019e-10
responsetimeb2      =  4.749991e-10
responsetimeb3      =  6.222303e-10
responsetimeb4      =  6.830782e-10
npresponsetimea1    =  3.352351e-10
npresponsetimea2    =  3.791096e-10
npresponsetimea3    =  5.257191e-10
npresponsetimea4    =  6.068470e-10
npresponsetimeb1    =  6.546618e-10
npresponsetimeb2    =  6.876136e-10
npresponsetimeb3    =  1.838224e-09
npresponsetimeb4    =  1.879167e-09
responsetimeupa1    =  4.176282e-10
responsetimeupa2    =  4.760304e-10
responsetimeupa3    =  6.163913e-10
responsetimeupa4    =  6.792198e-10
responsetimeupb1    =  4.988591e-10
responsetimeupb2    =  5.566747e-10
responsetimeupb3    =  6.992556e-10
responsetimeupb4    =  7.573220e-10
tdiff = 2.777245e-10
iavg                =  -5.587412e-04 from=  3.338648e-10 to=  6.176135e-10
iavg = -5.58741e-04
tdiffb = 2.654763e-10
iavgb               =  -5.408586e-04 from=  4.176019e-10 to=  6.858476e-10
iavgb = -5.40859e-04
Note: No ".plot", ".print", or ".fourier" lines; no simulations run
