
Circuit: *pulseloop

Doing analysis at TEMP = 27.000000 and TNOM = 27.000000

Note: Starting dynamic gmin stepping
Trying gmin =   1.0000E-03 Note: One successful gmin step
Trying gmin =   1.0000E-04 Note: One successful gmin step
Trying gmin =   1.0000E-05 Warning: Further gmin increment
Trying gmin =   5.6234E-05 Note: One successful gmin step
Trying gmin =   2.3714E-05 Note: One successful gmin step
Trying gmin =   6.4938E-06 Note: One successful gmin step
Trying gmin =   9.3057E-07 Note: One successful gmin step
Trying gmin =   9.3057E-08 Note: One successful gmin step
Trying gmin =   9.3057E-09 Note: One successful gmin step
Trying gmin =   9.3057E-10 Note: One successful gmin step
Trying gmin =   9.3057E-11 Note: One successful gmin step
Trying gmin =   9.3057E-12 Note: One successful gmin step
Trying gmin =   2.9427E-12 Note: One successful gmin step
Trying gmin =   1.0000E-12 Note: One successful gmin step
Note: Dynamic gmin stepping completed

Initial Transient Solution
--------------------------

Node                                   Voltage
----                                   -------
pos_supply                                 1.8
xpg1.reset_loop                            1.8
xpg1.critical_node                     1.74017
neg_supply                                   0
snoise                                       0
outb                               9.68599e-07
xpg1.invo                          2.45993e-06
xpg1.xe                                    1.8
outa                               9.68599e-07
xpg2.reset_loop                            1.8
xpg2.critical_node                     1.74017
xpg2.invo                          2.45993e-06
xpg2.xe                                    1.8
xpg3.reset_loop                            1.8
xpg3.critical_node                     1.74017
npoutb                             9.68599e-07
xpg3.invo                          2.45993e-06
xpg3.xe                                    1.8
npouta                             9.68599e-07
xpg4.reset_loop                            1.8
xpg4.critical_node                         1.8
xpg4.invo                          9.68599e-07
xpg4.xe                                    1.8
xpg5.reset_loop                            1.8
xpg5.critical_node                     1.74017
upb                                9.68599e-07
xpg5.invo                          2.45993e-06
xpg5.xe                                    1.8
upa                                9.68599e-07
xpg6.reset_loop                            1.8
xpg6.critical_node                     1.74017
xpg6.invo                          2.45993e-06
xpg6.xe                                    1.8
v2#branch                                    0
v4#branch                          9.76073e-09
v3#branch                         -9.76073e-09



No. of Data Rows : 13489
responsetimea1      =  2.798200e-09
responsetimea2      =  2.831638e-09
responsetimea3      =  8.549724e-09
responsetimea4      =  8.592319e-09
responsetimeb1      =  2.877429e-09
responsetimeb2      =  2.935279e-09
responsetimeb3      =  8.627901e-09
responsetimeb4      =  8.687618e-09
npresponsetimea1    =  2.799439e-09
npresponsetimea2    =  2.831887e-09
npresponsetimea3    =  8.551680e-09
npresponsetimea4    =  8.593819e-09
npresponsetimeb1    =  2.361371e-08
npresponsetimeb2    =  2.365353e-08

Error: measure  npresponsetimeb3  (WHEN) : out of interval
 meas tran npresponsetimeb3 when v(npoutb)=1.2 cross=3 failed!


Error: measure  npresponsetimeb4  (WHEN) : out of interval
 meas tran npresponsetimeb4 when v(npoutb)=1.2 cross=4 failed!

responsetimeupa1    =  2.879926e-09
responsetimeupa2    =  2.939004e-09
responsetimeupa3    =  8.632397e-09
responsetimeupa4    =  8.691411e-09
responsetimeupb1    =  2.960504e-09
responsetimeupb2    =  3.019177e-09
responsetimeupb3    =  8.716450e-09
responsetimeupb4    =  8.773850e-09
tdiff = 5.794119e-09
iavg                =  -2.555715e-05 from=  2.798200e-09 to=  8.595000e-09
iavg = -2.55571e-05
tdiffb = 5.810189e-09
iavgb               =  -2.587770e-05 from=  2.877429e-09 to=  8.692186e-09
iavgb = -2.58777e-05
Note: No ".plot", ".print", or ".fourier" lines; no simulations run
