
Circuit: *pulseloop

Doing analysis at TEMP = 27.000000 and TNOM = 27.000000

Note: Starting dynamic gmin stepping
Trying gmin =   1.0000E-03 Note: One successful gmin step
Trying gmin =   1.0000E-04 Note: One successful gmin step
Trying gmin =   1.0000E-05 Warning: Further gmin increment
Trying gmin =   5.6234E-05 Note: One successful gmin step
Trying gmin =   2.3714E-05 Note: One successful gmin step
Trying gmin =   6.4938E-06 Note: One successful gmin step
Trying gmin =   9.3057E-07 Note: One successful gmin step
Trying gmin =   9.3057E-08 Note: One successful gmin step
Trying gmin =   9.3057E-09 Note: One successful gmin step
Trying gmin =   9.3057E-10 Note: One successful gmin step
Trying gmin =   9.3057E-11 Note: One successful gmin step
Trying gmin =   9.3057E-12 Note: One successful gmin step
Trying gmin =   2.9427E-12 Note: One successful gmin step
Trying gmin =   1.0000E-12 Note: One successful gmin step
Note: Dynamic gmin stepping completed

Initial Transient Solution
--------------------------

Node                                   Voltage
----                                   -------
pos_supply                                 1.8
xpg1.reset_loop                            1.8
xpg1.critical_node                     1.74017
neg_supply                                   0
snoise                                       0
outb                               9.68599e-07
xpg1.invo                          2.45993e-06
xpg1.xe                                    1.8
outa                               9.68599e-07
xpg2.reset_loop                            1.8
xpg2.critical_node                     1.74017
xpg2.invo                          2.45993e-06
xpg2.xe                                    1.8
xpg3.reset_loop                            1.8
xpg3.critical_node                     1.74017
npoutb                             9.68599e-07
xpg3.invo                          2.45993e-06
xpg3.xe                                    1.8
npouta                             9.68599e-07
xpg4.reset_loop                            1.8
xpg4.critical_node                         1.8
xpg4.invo                          9.68599e-07
xpg4.xe                                    1.8
xpg5.reset_loop                            1.8
xpg5.critical_node                     1.74017
upb                                9.68599e-07
xpg5.invo                          2.45993e-06
xpg5.xe                                    1.8
upa                                9.68599e-07
xpg6.reset_loop                            1.8
xpg6.critical_node                     1.74017
xpg6.invo                          2.45993e-06
xpg6.xe                                    1.8
v2#branch                                    0
v4#branch                          9.76073e-09
v3#branch                         -9.76073e-09



No. of Data Rows : 3180
responsetimea1      =  2.630882e-10
responsetimea2      =  3.230561e-10
responsetimea3      =  5.345486e-10
responsetimea4      =  5.925594e-10
responsetimeb1      =  3.436284e-10
responsetimeb2      =  4.023081e-10
responsetimeb3      =  6.230386e-10
responsetimeb4      =  6.651684e-10
npresponsetimea1    =  2.643730e-10
npresponsetimea2    =  3.240496e-10
npresponsetimea3    =  5.354823e-10
npresponsetimea4    =  5.923508e-10
npresponsetimeb1    =  6.446961e-10
npresponsetimeb2    =  6.890436e-10
npresponsetimeb3    =  1.419815e-09
npresponsetimeb4    =  1.476266e-09
responsetimeupa1    =  3.465011e-10
responsetimeupa2    =  4.059931e-10
responsetimeupa3    =  6.203827e-10
responsetimeupa4    =  6.795254e-10
responsetimeupb1    =  4.276511e-10
responsetimeupb2    =  4.860813e-10
responsetimeupb3    =  7.078415e-10
responsetimeupb4    =  7.485845e-10
tdiff = 3.294712e-10
iavg                =  -5.256066e-04 from=  2.630882e-10 to=  5.934062e-10
iavg = -5.25607e-04
tdiffb = 3.215400e-10
iavgb               =  -5.851501e-04 from=  3.436284e-10 to=  6.682228e-10
iavgb = -5.85150e-04
Note: No ".plot", ".print", or ".fourier" lines; no simulations run
