
Circuit: *pulseloop

Doing analysis at TEMP = 27.000000 and TNOM = 27.000000

Note: Starting dynamic gmin stepping
Trying gmin =   1.0000E-03 Note: One successful gmin step
Trying gmin =   1.0000E-04 Note: One successful gmin step
Trying gmin =   1.0000E-05 Warning: Further gmin increment
Trying gmin =   5.6234E-05 Note: One successful gmin step
Trying gmin =   2.3714E-05 Note: One successful gmin step
Trying gmin =   6.4938E-06 Note: One successful gmin step
Trying gmin =   9.3057E-07 Note: One successful gmin step
Trying gmin =   9.3057E-08 Note: One successful gmin step
Trying gmin =   9.3057E-09 Note: One successful gmin step
Trying gmin =   9.3057E-10 Note: One successful gmin step
Trying gmin =   9.3057E-11 Note: One successful gmin step
Trying gmin =   9.3057E-12 Note: One successful gmin step
Trying gmin =   2.9427E-12 Note: One successful gmin step
Trying gmin =   1.0000E-12 Note: One successful gmin step
Note: Dynamic gmin stepping completed

Initial Transient Solution
--------------------------

Node                                   Voltage
----                                   -------
pos_supply                                 1.8
xpg1.reset_loop                            1.8
xpg1.critical_node                     1.74017
neg_supply                                   0
snoise                                       0
outb                               9.68599e-07
xpg1.invo                          2.45993e-06
xpg1.xe                                    1.8
outa                               9.68599e-07
xpg2.reset_loop                            1.8
xpg2.critical_node                     1.74017
xpg2.invo                          2.45993e-06
xpg2.xe                                    1.8
xpg3.reset_loop                            1.8
xpg3.critical_node                     1.74017
npoutb                             9.68599e-07
xpg3.invo                          2.45993e-06
xpg3.xe                                    1.8
npouta                             9.68599e-07
xpg4.reset_loop                            1.8
xpg4.critical_node                         1.8
xpg4.invo                          9.68599e-07
xpg4.xe                                    1.8
xpg5.reset_loop                            1.8
xpg5.critical_node                     1.74017
upb                                9.68599e-07
xpg5.invo                          2.45993e-06
xpg5.xe                                    1.8
upa                                9.68599e-07
xpg6.reset_loop                            1.8
xpg6.critical_node                     1.74017
xpg6.invo                          2.45993e-06
xpg6.xe                                    1.8
v2#branch                                    0
v4#branch                          9.76073e-09
v3#branch                         -9.76073e-09



No. of Data Rows : 4655
responsetimea1      =  2.983400e-10
responsetimea2      =  3.656691e-10
responsetimea3      =  8.530780e-10
responsetimea4      =  9.100172e-10
responsetimeb1      =  3.796589e-10
responsetimeb2      =  4.386511e-10
responsetimeb3      =  9.369538e-10
responsetimeb4      =  9.942587e-10
npresponsetimea1    =  2.992397e-10
npresponsetimea2    =  3.669275e-10
npresponsetimea3    =  8.541085e-10
npresponsetimea4    =  9.114061e-10
npresponsetimeb1    =  5.667754e-09
npresponsetimeb2    =  5.711739e-09
npresponsetimeb3    =  9.526757e-09
npresponsetimeb4    =  9.571475e-09
responsetimeupa1    =  3.821623e-10
responsetimeupa2    =  4.419368e-10
responsetimeupa3    =  9.395556e-10
responsetimeupa4    =  9.985162e-10
responsetimeupb1    =  4.628948e-10
responsetimeupb2    =  5.216348e-10
responsetimeupb3    =  1.022353e-09
responsetimeupb4    =  1.081601e-09
tdiff = 6.116772e-10
iavg                =  -2.051938e-04 from=  2.983400e-10 to=  9.157379e-10
iavg = -2.05194e-04
tdiffb = 6.145998e-10
iavgb               =  -1.877674e-04 from=  3.796589e-10 to=  9.961781e-10
iavgb = -1.87767e-04
Note: No ".plot", ".print", or ".fourier" lines; no simulations run
