
Circuit: *pulseloop

Doing analysis at TEMP = 27.000000 and TNOM = 27.000000

Note: Starting dynamic gmin stepping
Trying gmin =   1.0000E-03 Note: One successful gmin step
Trying gmin =   1.0000E-04 Note: One successful gmin step
Trying gmin =   1.0000E-05 Warning: Further gmin increment
Trying gmin =   5.6234E-05 Note: One successful gmin step
Trying gmin =   2.3714E-05 Note: One successful gmin step
Trying gmin =   6.4938E-06 Note: One successful gmin step
Trying gmin =   9.3057E-07 Note: One successful gmin step
Trying gmin =   9.3057E-08 Note: One successful gmin step
Trying gmin =   9.3057E-09 Note: One successful gmin step
Trying gmin =   9.3057E-10 Note: One successful gmin step
Trying gmin =   9.3057E-11 Note: One successful gmin step
Trying gmin =   9.3057E-12 Note: One successful gmin step
Trying gmin =   2.9427E-12 Note: One successful gmin step
Trying gmin =   1.0000E-12 Note: One successful gmin step
Note: Dynamic gmin stepping completed

Initial Transient Solution
--------------------------

Node                                   Voltage
----                                   -------
pos_supply                                 1.8
xpg1.reset_loop                            1.8
xpg1.critical_node                     1.74017
neg_supply                                   0
snoise                                       0
outb                               9.68599e-07
xpg1.invo                          2.45993e-06
xpg1.xe                                    1.8
outa                               9.68599e-07
xpg2.reset_loop                            1.8
xpg2.critical_node                     1.74017
xpg2.invo                          2.45993e-06
xpg2.xe                                    1.8
xpg3.reset_loop                            1.8
xpg3.critical_node                     1.74017
npoutb                             9.68599e-07
xpg3.invo                          2.45993e-06
xpg3.xe                                    1.8
npouta                             9.68599e-07
xpg4.reset_loop                            1.8
xpg4.critical_node                         1.8
xpg4.invo                          9.68599e-07
xpg4.xe                                    1.8
xpg5.reset_loop                            1.8
xpg5.critical_node                     1.74017
upb                                9.68599e-07
xpg5.invo                          2.45993e-06
xpg5.xe                                    1.8
upa                                9.68599e-07
xpg6.reset_loop                            1.8
xpg6.critical_node                     1.74017
xpg6.invo                          2.45993e-06
xpg6.xe                                    1.8
v2#branch                                    0
v4#branch                          9.76073e-09
v3#branch                         -9.76073e-09



No. of Data Rows : 1641
responsetimea1      =  2.994761e-10
responsetimea2      =  3.607348e-10
responsetimea3      =  4.089527e-10
responsetimea4      =  4.702600e-10
responsetimeb1      =  4.049569e-10
responsetimeb2      =  4.365556e-10
responsetimeb3      =  4.828670e-10
responsetimeb4      =  5.432696e-10
npresponsetimea1    =  3.008796e-10
npresponsetimea2    =  3.606951e-10
npresponsetimea3    =  4.077610e-10
npresponsetimea4    =  4.698838e-10
npresponsetimeb1    =  4.196142e-10
npresponsetimeb2    =  4.201444e-10
npresponsetimeb3    =  5.131753e-10
npresponsetimeb4    =  5.597691e-10
responsetimeupa1    =  3.833068e-10
responsetimeupa2    =  4.445836e-10
responsetimeupa3    =  4.853993e-10
responsetimeupa4    =  5.449403e-10
responsetimeupb1    =  4.748400e-10
responsetimeupb2    =  5.114810e-10
responsetimeupb3    =  5.619957e-10
responsetimeupb4    =  6.235949e-10
tdiff = 1.707839e-10
iavg                =  -6.535434e-04 from=  2.994761e-10 to=  4.709169e-10
iavg = -6.53543e-04
tdiffb = 1.383127e-10
iavgb               =  -7.540788e-04 from=  4.049569e-10 to=  5.453793e-10
iavgb = -7.54079e-04
Note: No ".plot", ".print", or ".fourier" lines; no simulations run
