
Circuit: *pulseloop

Doing analysis at TEMP = 27.000000 and TNOM = 27.000000

Note: Starting dynamic gmin stepping
Trying gmin =   1.0000E-03 Note: One successful gmin step
Trying gmin =   1.0000E-04 Note: One successful gmin step
Trying gmin =   1.0000E-05 Warning: Further gmin increment
Trying gmin =   5.6234E-05 Note: One successful gmin step
Trying gmin =   2.3714E-05 Note: One successful gmin step
Trying gmin =   6.4938E-06 Note: One successful gmin step
Trying gmin =   9.3057E-07 Note: One successful gmin step
Trying gmin =   9.3057E-08 Note: One successful gmin step
Trying gmin =   9.3057E-09 Note: One successful gmin step
Trying gmin =   9.3057E-10 Note: One successful gmin step
Trying gmin =   9.3057E-11 Note: One successful gmin step
Trying gmin =   9.3057E-12 Note: One successful gmin step
Trying gmin =   2.9427E-12 Note: One successful gmin step
Trying gmin =   1.0000E-12 Note: One successful gmin step
Note: Dynamic gmin stepping completed

Initial Transient Solution
--------------------------

Node                                   Voltage
----                                   -------
pos_supply                                 1.8
xpg1.reset_loop                            1.8
xpg1.critical_node                     1.74017
neg_supply                                   0
snoise                                       0
outb                               9.68599e-07
xpg1.invo                          2.45993e-06
xpg1.xe                                    1.8
outa                               9.68599e-07
xpg2.reset_loop                            1.8
xpg2.critical_node                     1.74017
xpg2.invo                          2.45993e-06
xpg2.xe                                    1.8
xpg3.reset_loop                            1.8
xpg3.critical_node                     1.74017
npoutb                             9.68599e-07
xpg3.invo                          2.45993e-06
xpg3.xe                                    1.8
npouta                             9.68599e-07
xpg4.reset_loop                            1.8
xpg4.critical_node                         1.8
xpg4.invo                          9.68599e-07
xpg4.xe                                    1.8
xpg5.reset_loop                            1.8
xpg5.critical_node                     1.74017
upb                                9.68599e-07
xpg5.invo                          2.45993e-06
xpg5.xe                                    1.8
upa                                9.68599e-07
xpg6.reset_loop                            1.8
xpg6.critical_node                     1.74017
xpg6.invo                          2.45993e-06
xpg6.xe                                    1.8
v2#branch                                    0
v4#branch                          9.76073e-09
v3#branch                         -9.76073e-09



No. of Data Rows : 3280
responsetimea1      =  3.849075e-10
responsetimea2      =  4.466012e-10
responsetimea3      =  7.140357e-10
responsetimea4      =  7.765722e-10
responsetimeb1      =  4.663969e-10
responsetimeb2      =  5.248497e-10
responsetimeb3      =  7.983389e-10
responsetimeb4      =  8.532509e-10
npresponsetimea1    =  3.865030e-10
npresponsetimea2    =  4.473739e-10
npresponsetimea3    =  7.160610e-10
npresponsetimea4    =  7.782808e-10
npresponsetimeb1    =  1.024399e-09
npresponsetimeb2    =  1.062495e-09
npresponsetimeb3    =  3.081693e-09
npresponsetimeb4    =  3.152526e-09
responsetimeupa1    =  4.702955e-10
responsetimeupa2    =  5.286985e-10
responsetimeupa3    =  8.014947e-10
responsetimeupa4    =  8.602442e-10
responsetimeupb1    =  5.511777e-10
responsetimeupb2    =  6.095566e-10
responsetimeupb3    =  8.841501e-10
responsetimeupb4    =  9.423618e-10
tdiff = 3.916647e-10
iavg                =  -2.410565e-04 from=  3.849075e-10 to=  7.771797e-10
iavg = -2.41056e-04
tdiffb = 3.868540e-10
iavgb               =  -2.199930e-04 from=  4.663969e-10 to=  8.538708e-10
iavgb = -2.19993e-04
Note: No ".plot", ".print", or ".fourier" lines; no simulations run
